version 3
run WithBeaconing-0-20250601-16:57:30-9948
attr configname WithBeaconing
attr datetime 20250601-16:57:30
attr datetimef 20250601-165730
attr experiment WithBeaconing
attr inifile omnetpp.ini
attr iterationvars ""
attr iterationvarsd ""
attr iterationvarsf ""
attr measurement ""
attr network RSUExampleScenario
attr processid 9948
attr repetition 0
attr replication #0
attr resultdir results
attr runnumber 0
attr seedset 0
config image-path ../../images
config *.rsu[*].appl.sendBeacons true
config *.node[*].appl.sendBeacons true
config cmdenv-express-mode false
config cmdenv-autoflush true
config cmdenv-status-frequency 1s
config **.cmdenv-log-level trace
config network RSUExampleScenario
config image-path ../../images
config sim-time-limit 200s
config output-scalar-file results.sca
config output-vector-file results.vec
config **.scalar-recording true
config **.vector-recording true
config *.playgroundSizeX 2500m
config *.playgroundSizeY 2500m
config *.playgroundSizeZ 50m
config *.annotations.draw true
config *.obstacles.obstacles "xmldoc(\"config.xml\", \"//AnalogueModel[@type='SimpleObstacleShadowing']/obstacles\")"
config *.manager.updateInterval 1s
config *.manager.host "\"localhost\""
config *.manager.port 9999
config *.manager.autoShutdown true
config *.manager.launchConfig "xmldoc(\"erlangen.launchd.xml\")"
config *.manager.trafficLightModuleType "\"org.car2x.veins.nodes.TrafficLight\""
config *.tls[*].mobility.x 0
config *.tls[*].mobility.y 0
config *.tls[*].mobility.z 3
config *.tls[*].applType "\"org.car2x.veins.modules.application.traci.TraCIDemoTrafficLightApp\""
config *.tls[*].logicType "\"org.car2x.veins.modules.world.traci.trafficLight.logics.TraCITrafficLightSimpleLogic\""
config *.rsu[0].mobility.x 2000
config *.rsu[0].mobility.y 2000
config *.rsu[0].mobility.z 3
config *.rsu[*].applType "\"TraCIDemoRSU11p\""
config *.rsu[*].appl.headerLength "80 bit"
config *.rsu[*].appl.sendBeacons false
config *.rsu[*].appl.dataOnSch false
config *.rsu[*].appl.beaconInterval 1s
config *.rsu[*].appl.beaconUserPriority 7
config *.rsu[*].appl.dataUserPriority 5
config *.rsu[*].nic.phy80211p.antennaOffsetZ "0 m"
config *.connectionManager.sendDirect true
config *.connectionManager.maxInterfDist 300m
config *.connectionManager.drawMaxIntfDist true
config *.**.nic.mac1609_4.useServiceChannel false
config *.**.nic.mac1609_4.txPower 20mW
config *.**.nic.mac1609_4.bitrate 6Mbps
config *.**.nic.phy80211p.minPowerLevel -110dBm
config *.**.nic.phy80211p.useNoiseFloor true
config *.**.nic.phy80211p.noiseFloor -98dBm
config *.**.nic.phy80211p.decider "xmldoc(\"config.xml\")"
config *.**.nic.phy80211p.analogueModels "xmldoc(\"config.xml\")"
config *.**.nic.phy80211p.usePropagationDelay true
config *.**.nic.phy80211p.antenna "xmldoc(\"antenna.xml\", \"/root/Antenna[@id='monopole']\")"
config *.node[*].nic.phy80211p.antennaOffsetY "0 m"
config *.node[*].nic.phy80211p.antennaOffsetZ "1.895 m"
config *.node[*].applType "\"TraCIDemo11p\""
config *.node[*].appl.headerLength "80 bit"
config *.node[*].appl.sendBeacons false
config *.node[*].appl.dataOnSch false
config *.node[*].appl.beaconInterval 1s
config *.node[*].veinsmobility.x 0
config *.node[*].veinsmobility.y 0
config *.node[*].veinsmobility.z 0
config *.node[*0].veinsmobility.accidentCount 0
config *.node[*0].veinsmobility.accidentStart 1000s
config *.node[*0].veinsmobility.accidentDuration 1s

par RSUExampleScenario.obstacles typename "\"org.car2x.veins.modules.obstacle.ObstacleControl\""
par RSUExampleScenario.obstacles obstacles "<obstacles>...</obstacles> at /home/erick/omnetpp-6.1/veins/examples/P8//config.xml:40"
par RSUExampleScenario.obstacles gridCellSize 250
par RSUExampleScenario.annotations typename "\"org.car2x.veins.modules.world.annotations.AnnotationManager\""
par RSUExampleScenario.annotations draw true
par RSUExampleScenario.annotations annotations "<annotations/> at content:1"
par RSUExampleScenario.connectionManager typename "\"org.car2x.veins.base.connectionManager.ConnectionManager\""
par RSUExampleScenario.connectionManager sendDirect true
par RSUExampleScenario.connectionManager maxInterfDist 300m
attr unit m
par RSUExampleScenario.connectionManager drawMaxIntfDist true
par RSUExampleScenario.world typename "\"org.car2x.veins.base.modules.BaseWorldUtility\""
par RSUExampleScenario.world playgroundSizeX 2500m
attr unit m
par RSUExampleScenario.world playgroundSizeY 2500m
attr unit m
par RSUExampleScenario.world playgroundSizeZ 50m
attr unit m
par RSUExampleScenario.world useTorus false
par RSUExampleScenario.world use2D false
par RSUExampleScenario.manager typename "\"org.car2x.veins.modules.mobility.traci.TraCIScenarioManagerLaunchd\""
par RSUExampleScenario.manager connectAt 0s
attr unit s
par RSUExampleScenario.manager firstStepAt -1s
attr unit s
par RSUExampleScenario.manager updateInterval 1s
attr unit s
par RSUExampleScenario.manager moduleType "\"org.car2x.veins.nodes.Car\""
par RSUExampleScenario.manager moduleName "\"node\""
par RSUExampleScenario.manager moduleDisplayString "\"*='i=veins/node/car;is=vs'\""
par RSUExampleScenario.manager trafficLightModuleType "\"org.car2x.veins.nodes.TrafficLight\""
par RSUExampleScenario.manager trafficLightModuleName "\"tls\""
par RSUExampleScenario.manager trafficLightFilter "\"\""
par RSUExampleScenario.manager trafficLightModuleDisplayString "\"i=veins/node/trafficlight;is=vs\""
par RSUExampleScenario.manager host "\"localhost\""
par RSUExampleScenario.manager port 9999
par RSUExampleScenario.manager seed -1
par RSUExampleScenario.manager autoShutdown true
par RSUExampleScenario.manager margin 25
par RSUExampleScenario.manager roiRoads "\"\""
par RSUExampleScenario.manager roiRects "\"\""
par RSUExampleScenario.manager penetrationRate 1
par RSUExampleScenario.manager ignoreGuiCommands false
par RSUExampleScenario.manager order -1
par RSUExampleScenario.manager ignoreUnknownSubscriptionResults false
par RSUExampleScenario.manager launchConfig "<launch>...</launch> at /home/erick/omnetpp-6.1/veins/examples/P8//erlangen.launchd.xml:35"
scalar RSUExampleScenario.manager roiArea 0
par RSUExampleScenario.roadsCanvasVisualizer typename "\"org.car2x.veins.visualizer.roads.RoadsCanvasVisualizer\""
par RSUExampleScenario.roadsCanvasVisualizer enabled true
par RSUExampleScenario.roadsCanvasVisualizer lineZIndex -1
par RSUExampleScenario.roadsCanvasVisualizer lineColor "\"firebrick4\""
par RSUExampleScenario.roadsCanvasVisualizer lineWidth 1
par RSUExampleScenario.roadsCanvasVisualizer lineWidthZoom false
par RSUExampleScenario.node[0].appl typename "\"org.car2x.veins.modules.application.traci.TraCIDemo11p\""
par RSUExampleScenario.node[0].appl headerLength 80bit
attr unit bit
par RSUExampleScenario.node[0].appl sendBeacons true
par RSUExampleScenario.node[0].appl beaconLengthBits 256bit
attr unit bit
par RSUExampleScenario.node[0].appl beaconUserPriority 7
par RSUExampleScenario.node[0].appl beaconInterval 1s
attr unit s
par RSUExampleScenario.node[0].appl dataLengthBits 1024bit
attr unit bit
par RSUExampleScenario.node[0].appl dataOnSch false
par RSUExampleScenario.node[0].appl dataUserPriority 7
par RSUExampleScenario.node[0].appl avoidBeaconSynchronization true
par RSUExampleScenario.node[0].appl sendWSA false
par RSUExampleScenario.node[0].appl wsaLengthBits 250bit
attr unit bit
par RSUExampleScenario.node[0].appl wsaInterval 1s
attr unit s
scalar RSUExampleScenario.node[0].appl generatedWSMs 1
scalar RSUExampleScenario.node[0].appl receivedWSMs 0
scalar RSUExampleScenario.node[0].appl generatedBSMs 56
scalar RSUExampleScenario.node[0].appl receivedBSMs 151
scalar RSUExampleScenario.node[0].appl generatedWSAs 0
scalar RSUExampleScenario.node[0].appl receivedWSAs 0
par RSUExampleScenario.node[0].nic.phy80211p typename "\"org.car2x.veins.modules.phy.PhyLayer80211p\""
par RSUExampleScenario.node[0].nic.phy80211p recordStats false
par RSUExampleScenario.node[0].nic.phy80211p usePropagationDelay true
par RSUExampleScenario.node[0].nic.phy80211p noiseFloor -98dBm
attr unit dBm
par RSUExampleScenario.node[0].nic.phy80211p useNoiseFloor true
par RSUExampleScenario.node[0].nic.phy80211p antenna "<Antenna type=\"SampledAntenna1D\" id=\"monopole\">...</Antenna> at /home/erick/omnetpp-6.1/veins/examples/P8//antenna.xml:35"
par RSUExampleScenario.node[0].nic.phy80211p antennaOffsetX 0m
attr unit m
par RSUExampleScenario.node[0].nic.phy80211p antennaOffsetY 0m
attr unit m
par RSUExampleScenario.node[0].nic.phy80211p antennaOffsetZ 1.895m
attr unit m
par RSUExampleScenario.node[0].nic.phy80211p antennaOffsetYaw 0rad
attr unit rad
par RSUExampleScenario.node[0].nic.phy80211p analogueModels "<root>...</root> at /home/erick/omnetpp-6.1/veins/examples/P8//config.xml:34"
par RSUExampleScenario.node[0].nic.phy80211p decider "<root>...</root> at /home/erick/omnetpp-6.1/veins/examples/P8//config.xml:34"
par RSUExampleScenario.node[0].nic.phy80211p minPowerLevel -110dBm
attr unit dBm
par RSUExampleScenario.node[0].nic.phy80211p timeRXToTX 0s
attr unit s
par RSUExampleScenario.node[0].nic.phy80211p timeRXToSleep 0s
attr unit s
par RSUExampleScenario.node[0].nic.phy80211p timeTXToRX 0s
attr unit s
par RSUExampleScenario.node[0].nic.phy80211p timeTXToSleep 0s
attr unit s
par RSUExampleScenario.node[0].nic.phy80211p timeSleepToRX 0s
attr unit s
par RSUExampleScenario.node[0].nic.phy80211p timeSleepToTX 0s
attr unit s
par RSUExampleScenario.node[0].nic.phy80211p initialRadioState 0
par RSUExampleScenario.node[0].nic.phy80211p radioMinAtt 1
par RSUExampleScenario.node[0].nic.phy80211p radioMaxAtt 0
par RSUExampleScenario.node[0].nic.phy80211p nbRadioChannels 1
par RSUExampleScenario.node[0].nic.phy80211p initialRadioChannel 0
par RSUExampleScenario.node[0].nic.phy80211p ccaThreshold -65dBm
attr unit dBm
par RSUExampleScenario.node[0].nic.phy80211p collectCollisionStatistics false
par RSUExampleScenario.node[0].nic.phy80211p allowTxDuringRx false
scalar RSUExampleScenario.node[0].nic.phy80211p busyTime 0.00028042857142857
par RSUExampleScenario.node[0].nic.mac1609_4 typename "\"org.car2x.veins.modules.mac.ieee80211p.Mac1609_4\""
par RSUExampleScenario.node[0].nic.mac1609_4 notAffectedByHostState false
par RSUExampleScenario.node[0].nic.mac1609_4 headerLength 0bit
attr unit bit
par RSUExampleScenario.node[0].nic.mac1609_4 address "\"auto\""
par RSUExampleScenario.node[0].nic.mac1609_4 useServiceChannel false
par RSUExampleScenario.node[0].nic.mac1609_4 serviceChannel 1
par RSUExampleScenario.node[0].nic.mac1609_4 bitrate 6000000bps
attr unit bps
par RSUExampleScenario.node[0].nic.mac1609_4 syncOffset 0.0003s
attr unit s
par RSUExampleScenario.node[0].nic.mac1609_4 txPower 20mW
attr unit mW
par RSUExampleScenario.node[0].nic.mac1609_4 queueSize 0
par RSUExampleScenario.node[0].nic.mac1609_4 dot11RTSThreshold 12000bit
attr unit bit
par RSUExampleScenario.node[0].nic.mac1609_4 dot11ShortRetryLimit 7
par RSUExampleScenario.node[0].nic.mac1609_4 dot11LongRetryLimit 4
par RSUExampleScenario.node[0].nic.mac1609_4 ackLength 112bit
attr unit bit
par RSUExampleScenario.node[0].nic.mac1609_4 useAcks false
par RSUExampleScenario.node[0].nic.mac1609_4 frameErrorRate 0
par RSUExampleScenario.node[0].nic.mac1609_4 ackErrorRate 0
scalar RSUExampleScenario.node[0].nic.mac1609_4 ReceivedUnicastPackets 0
scalar RSUExampleScenario.node[0].nic.mac1609_4 ReceivedBroadcasts 151
scalar RSUExampleScenario.node[0].nic.mac1609_4 SentPackets 56
scalar RSUExampleScenario.node[0].nic.mac1609_4 SentAcknowledgements 0
scalar RSUExampleScenario.node[0].nic.mac1609_4 RetriesExceeded 0
scalar RSUExampleScenario.node[0].nic.mac1609_4 SNIRLostPackets 0
scalar RSUExampleScenario.node[0].nic.mac1609_4 RXTXLostPackets 0
scalar RSUExampleScenario.node[0].nic.mac1609_4 TotalLostPackets 0
scalar RSUExampleScenario.node[0].nic.mac1609_4 DroppedPacketsInMac 0
scalar RSUExampleScenario.node[0].nic.mac1609_4 TooLittleTime 0
scalar RSUExampleScenario.node[0].nic.mac1609_4 TimesIntoBackoff 56
scalar RSUExampleScenario.node[0].nic.mac1609_4 SlotsBackoff 92
scalar RSUExampleScenario.node[0].nic.mac1609_4 NumInternalContention 0
scalar RSUExampleScenario.node[0].nic.mac1609_4 totalBusyTime 0.021584
scalar RSUExampleScenario.node[0].nic.mac1609_4 retriesExceeded:count 0
attr recordingmode count
attr source org_car2x_veins_modules_mac_sigRetriesExceeded
scalar RSUExampleScenario.node[0].nic.mac1609_4 sentAcks:count 0
attr recordingmode count
attr source org_car2x_veins_modules_mac_sigSentAck
scalar RSUExampleScenario.node[0].nic.mac1609_4 sentPackets:count 56
attr recordingmode count
attr source org_car2x_veins_modules_mac_sigSentPacket
scalar RSUExampleScenario.node[0].nic.mac1609_4 collisions:count 0
attr recordingmode count
attr source org_car2x_veins_modules_mac_sigCollision
scalar RSUExampleScenario.node[0].nic.mac1609_4 channelBusy:timeavg 0.00038542857142857
attr recordingmode timeavg
attr source org_car2x_veins_modules_mac_sigChannelBusy
par RSUExampleScenario.node[0].nic typename "\"org.car2x.veins.modules.nic.Nic80211p\""
par RSUExampleScenario.node[0].nic connectionManagerName "\"connectionManager\""
par RSUExampleScenario.node[0].veinsmobility typename "\"org.car2x.veins.modules.mobility.traci.TraCIMobility\""
par RSUExampleScenario.node[0].veinsmobility notAffectedByHostState true
par RSUExampleScenario.node[0].veinsmobility x 0
par RSUExampleScenario.node[0].veinsmobility y 0
par RSUExampleScenario.node[0].veinsmobility z 0
par RSUExampleScenario.node[0].veinsmobility xOrientation 1
par RSUExampleScenario.node[0].veinsmobility yOrientation 0
par RSUExampleScenario.node[0].veinsmobility zOrientation 0
par RSUExampleScenario.node[0].veinsmobility hostPositionOffset 0m
attr unit m
par RSUExampleScenario.node[0].veinsmobility setHostSpeed false
par RSUExampleScenario.node[0].veinsmobility accidentCount 0
par RSUExampleScenario.node[0].veinsmobility accidentStart 1000s
attr unit s
par RSUExampleScenario.node[0].veinsmobility accidentDuration 1s
attr unit s
par RSUExampleScenario.node[0].veinsmobility accidentInterval "uniform(30s, 60s)"
attr unit s
scalar RSUExampleScenario.node[0].veinsmobility startTime 1
scalar RSUExampleScenario.node[0].veinsmobility totalTime 56
scalar RSUExampleScenario.node[0].veinsmobility stopTime 57
scalar RSUExampleScenario.node[0].veinsmobility minSpeed 3.9838386473861
scalar RSUExampleScenario.node[0].veinsmobility maxSpeed 13.998555123052
scalar RSUExampleScenario.node[0].veinsmobility totalDistance 699.63717510309
scalar RSUExampleScenario.node[0].veinsmobility totalCO2Emission 129.58767196054
par RSUExampleScenario.node[0] typename "\"org.car2x.veins.nodes.Car\""
par RSUExampleScenario.node[0] applType "\"TraCIDemo11p\""
par RSUExampleScenario.node[0] nicType "\"Nic80211p\""
par RSUExampleScenario.node[0] veinsmobilityType "\"org.car2x.veins.modules.mobility.traci.TraCIMobility\""
par RSUExampleScenario.node[1].appl typename "\"org.car2x.veins.modules.application.traci.TraCIDemo11p\""
par RSUExampleScenario.node[1].appl headerLength 80bit
attr unit bit
par RSUExampleScenario.node[1].appl sendBeacons true
par RSUExampleScenario.node[1].appl beaconLengthBits 256bit
attr unit bit
par RSUExampleScenario.node[1].appl beaconUserPriority 7
par RSUExampleScenario.node[1].appl beaconInterval 1s
attr unit s
par RSUExampleScenario.node[1].appl dataLengthBits 1024bit
attr unit bit
par RSUExampleScenario.node[1].appl dataOnSch false
par RSUExampleScenario.node[1].appl dataUserPriority 7
par RSUExampleScenario.node[1].appl avoidBeaconSynchronization true
par RSUExampleScenario.node[1].appl sendWSA false
par RSUExampleScenario.node[1].appl wsaLengthBits 250bit
attr unit bit
par RSUExampleScenario.node[1].appl wsaInterval 1s
attr unit s
scalar RSUExampleScenario.node[1].appl generatedWSMs 0
scalar RSUExampleScenario.node[1].appl receivedWSMs 0
scalar RSUExampleScenario.node[1].appl generatedBSMs 51
scalar RSUExampleScenario.node[1].appl receivedBSMs 206
scalar RSUExampleScenario.node[1].appl generatedWSAs 0
scalar RSUExampleScenario.node[1].appl receivedWSAs 0
par RSUExampleScenario.node[1].nic.phy80211p typename "\"org.car2x.veins.modules.phy.PhyLayer80211p\""
par RSUExampleScenario.node[1].nic.phy80211p recordStats false
par RSUExampleScenario.node[1].nic.phy80211p usePropagationDelay true
par RSUExampleScenario.node[1].nic.phy80211p noiseFloor -98dBm
attr unit dBm
par RSUExampleScenario.node[1].nic.phy80211p useNoiseFloor true
par RSUExampleScenario.node[1].nic.phy80211p antenna "<Antenna type=\"SampledAntenna1D\" id=\"monopole\">...</Antenna> at /home/erick/omnetpp-6.1/veins/examples/P8//antenna.xml:35"
par RSUExampleScenario.node[1].nic.phy80211p antennaOffsetX 0m
attr unit m
par RSUExampleScenario.node[1].nic.phy80211p antennaOffsetY 0m
attr unit m
par RSUExampleScenario.node[1].nic.phy80211p antennaOffsetZ 1.895m
attr unit m
par RSUExampleScenario.node[1].nic.phy80211p antennaOffsetYaw 0rad
attr unit rad
par RSUExampleScenario.node[1].nic.phy80211p analogueModels "<root>...</root> at /home/erick/omnetpp-6.1/veins/examples/P8//config.xml:34"
par RSUExampleScenario.node[1].nic.phy80211p decider "<root>...</root> at /home/erick/omnetpp-6.1/veins/examples/P8//config.xml:34"
par RSUExampleScenario.node[1].nic.phy80211p minPowerLevel -110dBm
attr unit dBm
par RSUExampleScenario.node[1].nic.phy80211p timeRXToTX 0s
attr unit s
par RSUExampleScenario.node[1].nic.phy80211p timeRXToSleep 0s
attr unit s
par RSUExampleScenario.node[1].nic.phy80211p timeTXToRX 0s
attr unit s
par RSUExampleScenario.node[1].nic.phy80211p timeTXToSleep 0s
attr unit s
par RSUExampleScenario.node[1].nic.phy80211p timeSleepToRX 0s
attr unit s
par RSUExampleScenario.node[1].nic.phy80211p timeSleepToTX 0s
attr unit s
par RSUExampleScenario.node[1].nic.phy80211p initialRadioState 0
par RSUExampleScenario.node[1].nic.phy80211p radioMinAtt 1
par RSUExampleScenario.node[1].nic.phy80211p radioMaxAtt 0
par RSUExampleScenario.node[1].nic.phy80211p nbRadioChannels 1
par RSUExampleScenario.node[1].nic.phy80211p initialRadioChannel 0
par RSUExampleScenario.node[1].nic.phy80211p ccaThreshold -65dBm
attr unit dBm
par RSUExampleScenario.node[1].nic.phy80211p collectCollisionStatistics false
par RSUExampleScenario.node[1].nic.phy80211p allowTxDuringRx false
scalar RSUExampleScenario.node[1].nic.phy80211p busyTime 0.00042007843137255
par RSUExampleScenario.node[1].nic.mac1609_4 typename "\"org.car2x.veins.modules.mac.ieee80211p.Mac1609_4\""
par RSUExampleScenario.node[1].nic.mac1609_4 notAffectedByHostState false
par RSUExampleScenario.node[1].nic.mac1609_4 headerLength 0bit
attr unit bit
par RSUExampleScenario.node[1].nic.mac1609_4 address "\"auto\""
par RSUExampleScenario.node[1].nic.mac1609_4 useServiceChannel false
par RSUExampleScenario.node[1].nic.mac1609_4 serviceChannel 1
par RSUExampleScenario.node[1].nic.mac1609_4 bitrate 6000000bps
attr unit bps
par RSUExampleScenario.node[1].nic.mac1609_4 syncOffset 0.0003s
attr unit s
par RSUExampleScenario.node[1].nic.mac1609_4 txPower 20mW
attr unit mW
par RSUExampleScenario.node[1].nic.mac1609_4 queueSize 0
par RSUExampleScenario.node[1].nic.mac1609_4 dot11RTSThreshold 12000bit
attr unit bit
par RSUExampleScenario.node[1].nic.mac1609_4 dot11ShortRetryLimit 7
par RSUExampleScenario.node[1].nic.mac1609_4 dot11LongRetryLimit 4
par RSUExampleScenario.node[1].nic.mac1609_4 ackLength 112bit
attr unit bit
par RSUExampleScenario.node[1].nic.mac1609_4 useAcks false
par RSUExampleScenario.node[1].nic.mac1609_4 frameErrorRate 0
par RSUExampleScenario.node[1].nic.mac1609_4 ackErrorRate 0
scalar RSUExampleScenario.node[1].nic.mac1609_4 ReceivedUnicastPackets 0
scalar RSUExampleScenario.node[1].nic.mac1609_4 ReceivedBroadcasts 206
scalar RSUExampleScenario.node[1].nic.mac1609_4 SentPackets 51
scalar RSUExampleScenario.node[1].nic.mac1609_4 SentAcknowledgements 0
scalar RSUExampleScenario.node[1].nic.mac1609_4 RetriesExceeded 0
scalar RSUExampleScenario.node[1].nic.mac1609_4 SNIRLostPackets 0
scalar RSUExampleScenario.node[1].nic.mac1609_4 RXTXLostPackets 0
scalar RSUExampleScenario.node[1].nic.mac1609_4 TotalLostPackets 0
scalar RSUExampleScenario.node[1].nic.mac1609_4 DroppedPacketsInMac 0
scalar RSUExampleScenario.node[1].nic.mac1609_4 TooLittleTime 0
scalar RSUExampleScenario.node[1].nic.mac1609_4 TimesIntoBackoff 51
scalar RSUExampleScenario.node[1].nic.mac1609_4 SlotsBackoff 75
scalar RSUExampleScenario.node[1].nic.mac1609_4 NumInternalContention 0
scalar RSUExampleScenario.node[1].nic.mac1609_4 totalBusyTime 0.026779
scalar RSUExampleScenario.node[1].nic.mac1609_4 retriesExceeded:count 0
attr recordingmode count
attr source org_car2x_veins_modules_mac_sigRetriesExceeded
scalar RSUExampleScenario.node[1].nic.mac1609_4 sentAcks:count 0
attr recordingmode count
attr source org_car2x_veins_modules_mac_sigSentAck
scalar RSUExampleScenario.node[1].nic.mac1609_4 sentPackets:count 51
attr recordingmode count
attr source org_car2x_veins_modules_mac_sigSentPacket
scalar RSUExampleScenario.node[1].nic.mac1609_4 collisions:count 0
attr recordingmode count
attr source org_car2x_veins_modules_mac_sigCollision
scalar RSUExampleScenario.node[1].nic.mac1609_4 channelBusy:timeavg 0.00052507843137255
attr recordingmode timeavg
attr source org_car2x_veins_modules_mac_sigChannelBusy
par RSUExampleScenario.node[1].nic typename "\"org.car2x.veins.modules.nic.Nic80211p\""
par RSUExampleScenario.node[1].nic connectionManagerName "\"connectionManager\""
par RSUExampleScenario.node[1].veinsmobility typename "\"org.car2x.veins.modules.mobility.traci.TraCIMobility\""
par RSUExampleScenario.node[1].veinsmobility notAffectedByHostState true
par RSUExampleScenario.node[1].veinsmobility x 0
par RSUExampleScenario.node[1].veinsmobility y 0
par RSUExampleScenario.node[1].veinsmobility z 0
par RSUExampleScenario.node[1].veinsmobility xOrientation 1
par RSUExampleScenario.node[1].veinsmobility yOrientation 0
par RSUExampleScenario.node[1].veinsmobility zOrientation 0
par RSUExampleScenario.node[1].veinsmobility hostPositionOffset 0m
attr unit m
par RSUExampleScenario.node[1].veinsmobility setHostSpeed false
par RSUExampleScenario.node[1].veinsmobility accidentCount 0
par RSUExampleScenario.node[1].veinsmobility accidentStart 49.6899s
attr unit s
par RSUExampleScenario.node[1].veinsmobility accidentDuration "uniform(30s, 60s)"
attr unit s
par RSUExampleScenario.node[1].veinsmobility accidentInterval "uniform(30s, 60s)"
attr unit s
scalar RSUExampleScenario.node[1].veinsmobility startTime 6
scalar RSUExampleScenario.node[1].veinsmobility totalTime 51
scalar RSUExampleScenario.node[1].veinsmobility stopTime 57
scalar RSUExampleScenario.node[1].veinsmobility minSpeed 3.9765328640258
scalar RSUExampleScenario.node[1].veinsmobility maxSpeed 13.994966224406
scalar RSUExampleScenario.node[1].veinsmobility totalDistance 620.04663068764
scalar RSUExampleScenario.node[1].veinsmobility totalCO2Emission 118.74144246914
par RSUExampleScenario.node[1] typename "\"org.car2x.veins.nodes.Car\""
par RSUExampleScenario.node[1] applType "\"TraCIDemo11p\""
par RSUExampleScenario.node[1] nicType "\"Nic80211p\""
par RSUExampleScenario.node[1] veinsmobilityType "\"org.car2x.veins.modules.mobility.traci.TraCIMobility\""
par RSUExampleScenario.node[2].appl typename "\"org.car2x.veins.modules.application.traci.TraCIDemo11p\""
par RSUExampleScenario.node[2].appl headerLength 80bit
attr unit bit
par RSUExampleScenario.node[2].appl sendBeacons true
par RSUExampleScenario.node[2].appl beaconLengthBits 256bit
attr unit bit
par RSUExampleScenario.node[2].appl beaconUserPriority 7
par RSUExampleScenario.node[2].appl beaconInterval 1s
attr unit s
par RSUExampleScenario.node[2].appl dataLengthBits 1024bit
attr unit bit
par RSUExampleScenario.node[2].appl dataOnSch false
par RSUExampleScenario.node[2].appl dataUserPriority 7
par RSUExampleScenario.node[2].appl avoidBeaconSynchronization true
par RSUExampleScenario.node[2].appl sendWSA false
par RSUExampleScenario.node[2].appl wsaLengthBits 250bit
attr unit bit
par RSUExampleScenario.node[2].appl wsaInterval 1s
attr unit s
scalar RSUExampleScenario.node[2].appl generatedWSMs 0
scalar RSUExampleScenario.node[2].appl receivedWSMs 0
scalar RSUExampleScenario.node[2].appl generatedBSMs 46
scalar RSUExampleScenario.node[2].appl receivedBSMs 232
scalar RSUExampleScenario.node[2].appl generatedWSAs 0
scalar RSUExampleScenario.node[2].appl receivedWSAs 0
par RSUExampleScenario.node[2].nic.phy80211p typename "\"org.car2x.veins.modules.phy.PhyLayer80211p\""
par RSUExampleScenario.node[2].nic.phy80211p recordStats false
par RSUExampleScenario.node[2].nic.phy80211p usePropagationDelay true
par RSUExampleScenario.node[2].nic.phy80211p noiseFloor -98dBm
attr unit dBm
par RSUExampleScenario.node[2].nic.phy80211p useNoiseFloor true
par RSUExampleScenario.node[2].nic.phy80211p antenna "<Antenna type=\"SampledAntenna1D\" id=\"monopole\">...</Antenna> at /home/erick/omnetpp-6.1/veins/examples/P8//antenna.xml:35"
par RSUExampleScenario.node[2].nic.phy80211p antennaOffsetX 0m
attr unit m
par RSUExampleScenario.node[2].nic.phy80211p antennaOffsetY 0m
attr unit m
par RSUExampleScenario.node[2].nic.phy80211p antennaOffsetZ 1.895m
attr unit m
par RSUExampleScenario.node[2].nic.phy80211p antennaOffsetYaw 0rad
attr unit rad
par RSUExampleScenario.node[2].nic.phy80211p analogueModels "<root>...</root> at /home/erick/omnetpp-6.1/veins/examples/P8//config.xml:34"
par RSUExampleScenario.node[2].nic.phy80211p decider "<root>...</root> at /home/erick/omnetpp-6.1/veins/examples/P8//config.xml:34"
par RSUExampleScenario.node[2].nic.phy80211p minPowerLevel -110dBm
attr unit dBm
par RSUExampleScenario.node[2].nic.phy80211p timeRXToTX 0s
attr unit s
par RSUExampleScenario.node[2].nic.phy80211p timeRXToSleep 0s
attr unit s
par RSUExampleScenario.node[2].nic.phy80211p timeTXToRX 0s
attr unit s
par RSUExampleScenario.node[2].nic.phy80211p timeTXToSleep 0s
attr unit s
par RSUExampleScenario.node[2].nic.phy80211p timeSleepToRX 0s
attr unit s
par RSUExampleScenario.node[2].nic.phy80211p timeSleepToTX 0s
attr unit s
par RSUExampleScenario.node[2].nic.phy80211p initialRadioState 0
par RSUExampleScenario.node[2].nic.phy80211p radioMinAtt 1
par RSUExampleScenario.node[2].nic.phy80211p radioMaxAtt 0
par RSUExampleScenario.node[2].nic.phy80211p nbRadioChannels 1
par RSUExampleScenario.node[2].nic.phy80211p initialRadioChannel 0
par RSUExampleScenario.node[2].nic.phy80211p ccaThreshold -65dBm
attr unit dBm
par RSUExampleScenario.node[2].nic.phy80211p collectCollisionStatistics false
par RSUExampleScenario.node[2].nic.phy80211p allowTxDuringRx false
scalar RSUExampleScenario.node[2].nic.phy80211p busyTime 0.00052452173913043
par RSUExampleScenario.node[2].nic.mac1609_4 typename "\"org.car2x.veins.modules.mac.ieee80211p.Mac1609_4\""
par RSUExampleScenario.node[2].nic.mac1609_4 notAffectedByHostState false
par RSUExampleScenario.node[2].nic.mac1609_4 headerLength 0bit
attr unit bit
par RSUExampleScenario.node[2].nic.mac1609_4 address "\"auto\""
par RSUExampleScenario.node[2].nic.mac1609_4 useServiceChannel false
par RSUExampleScenario.node[2].nic.mac1609_4 serviceChannel 1
par RSUExampleScenario.node[2].nic.mac1609_4 bitrate 6000000bps
attr unit bps
par RSUExampleScenario.node[2].nic.mac1609_4 syncOffset 0.0003s
attr unit s
par RSUExampleScenario.node[2].nic.mac1609_4 txPower 20mW
attr unit mW
par RSUExampleScenario.node[2].nic.mac1609_4 queueSize 0
par RSUExampleScenario.node[2].nic.mac1609_4 dot11RTSThreshold 12000bit
attr unit bit
par RSUExampleScenario.node[2].nic.mac1609_4 dot11ShortRetryLimit 7
par RSUExampleScenario.node[2].nic.mac1609_4 dot11LongRetryLimit 4
par RSUExampleScenario.node[2].nic.mac1609_4 ackLength 112bit
attr unit bit
par RSUExampleScenario.node[2].nic.mac1609_4 useAcks false
par RSUExampleScenario.node[2].nic.mac1609_4 frameErrorRate 0
par RSUExampleScenario.node[2].nic.mac1609_4 ackErrorRate 0
scalar RSUExampleScenario.node[2].nic.mac1609_4 ReceivedUnicastPackets 0
scalar RSUExampleScenario.node[2].nic.mac1609_4 ReceivedBroadcasts 232
scalar RSUExampleScenario.node[2].nic.mac1609_4 SentPackets 46
scalar RSUExampleScenario.node[2].nic.mac1609_4 SentAcknowledgements 0
scalar RSUExampleScenario.node[2].nic.mac1609_4 RetriesExceeded 0
scalar RSUExampleScenario.node[2].nic.mac1609_4 SNIRLostPackets 0
scalar RSUExampleScenario.node[2].nic.mac1609_4 RXTXLostPackets 0
scalar RSUExampleScenario.node[2].nic.mac1609_4 TotalLostPackets 0
scalar RSUExampleScenario.node[2].nic.mac1609_4 DroppedPacketsInMac 0
scalar RSUExampleScenario.node[2].nic.mac1609_4 TooLittleTime 0
scalar RSUExampleScenario.node[2].nic.mac1609_4 TimesIntoBackoff 46
scalar RSUExampleScenario.node[2].nic.mac1609_4 SlotsBackoff 79
scalar RSUExampleScenario.node[2].nic.mac1609_4 NumInternalContention 0
scalar RSUExampleScenario.node[2].nic.mac1609_4 totalBusyTime 0.028958
scalar RSUExampleScenario.node[2].nic.mac1609_4 retriesExceeded:count 0
attr recordingmode count
attr source org_car2x_veins_modules_mac_sigRetriesExceeded
scalar RSUExampleScenario.node[2].nic.mac1609_4 sentAcks:count 0
attr recordingmode count
attr source org_car2x_veins_modules_mac_sigSentAck
scalar RSUExampleScenario.node[2].nic.mac1609_4 sentPackets:count 46
attr recordingmode count
attr source org_car2x_veins_modules_mac_sigSentPacket
scalar RSUExampleScenario.node[2].nic.mac1609_4 collisions:count 0
attr recordingmode count
attr source org_car2x_veins_modules_mac_sigCollision
scalar RSUExampleScenario.node[2].nic.mac1609_4 channelBusy:timeavg 0.00062952173913043
attr recordingmode timeavg
attr source org_car2x_veins_modules_mac_sigChannelBusy
par RSUExampleScenario.node[2].nic typename "\"org.car2x.veins.modules.nic.Nic80211p\""
par RSUExampleScenario.node[2].nic connectionManagerName "\"connectionManager\""
par RSUExampleScenario.node[2].veinsmobility typename "\"org.car2x.veins.modules.mobility.traci.TraCIMobility\""
par RSUExampleScenario.node[2].veinsmobility notAffectedByHostState true
par RSUExampleScenario.node[2].veinsmobility x 0
par RSUExampleScenario.node[2].veinsmobility y 0
par RSUExampleScenario.node[2].veinsmobility z 0
par RSUExampleScenario.node[2].veinsmobility xOrientation 1
par RSUExampleScenario.node[2].veinsmobility yOrientation 0
par RSUExampleScenario.node[2].veinsmobility zOrientation 0
par RSUExampleScenario.node[2].veinsmobility hostPositionOffset 0m
attr unit m
par RSUExampleScenario.node[2].veinsmobility setHostSpeed false
par RSUExampleScenario.node[2].veinsmobility accidentCount 0
par RSUExampleScenario.node[2].veinsmobility accidentStart 38.7023s
attr unit s
par RSUExampleScenario.node[2].veinsmobility accidentDuration "uniform(30s, 60s)"
attr unit s
par RSUExampleScenario.node[2].veinsmobility accidentInterval "uniform(30s, 60s)"
attr unit s
scalar RSUExampleScenario.node[2].veinsmobility startTime 11
scalar RSUExampleScenario.node[2].veinsmobility totalTime 46
scalar RSUExampleScenario.node[2].veinsmobility stopTime 57
scalar RSUExampleScenario.node[2].veinsmobility minSpeed 4.1371645334055
scalar RSUExampleScenario.node[2].veinsmobility maxSpeed 13.983475106384
scalar RSUExampleScenario.node[2].veinsmobility totalDistance 547.17353419187
scalar RSUExampleScenario.node[2].veinsmobility totalCO2Emission 108.31156759655
par RSUExampleScenario.node[2] typename "\"org.car2x.veins.nodes.Car\""
par RSUExampleScenario.node[2] applType "\"TraCIDemo11p\""
par RSUExampleScenario.node[2] nicType "\"Nic80211p\""
par RSUExampleScenario.node[2] veinsmobilityType "\"org.car2x.veins.modules.mobility.traci.TraCIMobility\""
par RSUExampleScenario.node[3].appl typename "\"org.car2x.veins.modules.application.traci.TraCIDemo11p\""
par RSUExampleScenario.node[3].appl headerLength 80bit
attr unit bit
par RSUExampleScenario.node[3].appl sendBeacons true
par RSUExampleScenario.node[3].appl beaconLengthBits 256bit
attr unit bit
par RSUExampleScenario.node[3].appl beaconUserPriority 7
par RSUExampleScenario.node[3].appl beaconInterval 1s
attr unit s
par RSUExampleScenario.node[3].appl dataLengthBits 1024bit
attr unit bit
par RSUExampleScenario.node[3].appl dataOnSch false
par RSUExampleScenario.node[3].appl dataUserPriority 7
par RSUExampleScenario.node[3].appl avoidBeaconSynchronization true
par RSUExampleScenario.node[3].appl sendWSA false
par RSUExampleScenario.node[3].appl wsaLengthBits 250bit
attr unit bit
par RSUExampleScenario.node[3].appl wsaInterval 1s
attr unit s
scalar RSUExampleScenario.node[3].appl generatedWSMs 0
scalar RSUExampleScenario.node[3].appl receivedWSMs 0
scalar RSUExampleScenario.node[3].appl generatedBSMs 41
scalar RSUExampleScenario.node[3].appl receivedBSMs 263
scalar RSUExampleScenario.node[3].appl generatedWSAs 0
scalar RSUExampleScenario.node[3].appl receivedWSAs 0
par RSUExampleScenario.node[3].nic.phy80211p typename "\"org.car2x.veins.modules.phy.PhyLayer80211p\""
par RSUExampleScenario.node[3].nic.phy80211p recordStats false
par RSUExampleScenario.node[3].nic.phy80211p usePropagationDelay true
par RSUExampleScenario.node[3].nic.phy80211p noiseFloor -98dBm
attr unit dBm
par RSUExampleScenario.node[3].nic.phy80211p useNoiseFloor true
par RSUExampleScenario.node[3].nic.phy80211p antenna "<Antenna type=\"SampledAntenna1D\" id=\"monopole\">...</Antenna> at /home/erick/omnetpp-6.1/veins/examples/P8//antenna.xml:35"
par RSUExampleScenario.node[3].nic.phy80211p antennaOffsetX 0m
attr unit m
par RSUExampleScenario.node[3].nic.phy80211p antennaOffsetY 0m
attr unit m
par RSUExampleScenario.node[3].nic.phy80211p antennaOffsetZ 1.895m
attr unit m
par RSUExampleScenario.node[3].nic.phy80211p antennaOffsetYaw 0rad
attr unit rad
par RSUExampleScenario.node[3].nic.phy80211p analogueModels "<root>...</root> at /home/erick/omnetpp-6.1/veins/examples/P8//config.xml:34"
par RSUExampleScenario.node[3].nic.phy80211p decider "<root>...</root> at /home/erick/omnetpp-6.1/veins/examples/P8//config.xml:34"
par RSUExampleScenario.node[3].nic.phy80211p minPowerLevel -110dBm
attr unit dBm
par RSUExampleScenario.node[3].nic.phy80211p timeRXToTX 0s
attr unit s
par RSUExampleScenario.node[3].nic.phy80211p timeRXToSleep 0s
attr unit s
par RSUExampleScenario.node[3].nic.phy80211p timeTXToRX 0s
attr unit s
par RSUExampleScenario.node[3].nic.phy80211p timeTXToSleep 0s
attr unit s
par RSUExampleScenario.node[3].nic.phy80211p timeSleepToRX 0s
attr unit s
par RSUExampleScenario.node[3].nic.phy80211p timeSleepToTX 0s
attr unit s
par RSUExampleScenario.node[3].nic.phy80211p initialRadioState 0
par RSUExampleScenario.node[3].nic.phy80211p radioMinAtt 1
par RSUExampleScenario.node[3].nic.phy80211p radioMaxAtt 0
par RSUExampleScenario.node[3].nic.phy80211p nbRadioChannels 1
par RSUExampleScenario.node[3].nic.phy80211p initialRadioChannel 0
par RSUExampleScenario.node[3].nic.phy80211p ccaThreshold -65dBm
attr unit dBm
par RSUExampleScenario.node[3].nic.phy80211p collectCollisionStatistics false
par RSUExampleScenario.node[3].nic.phy80211p allowTxDuringRx false
scalar RSUExampleScenario.node[3].nic.phy80211p busyTime 0.00066712195121951
par RSUExampleScenario.node[3].nic.mac1609_4 typename "\"org.car2x.veins.modules.mac.ieee80211p.Mac1609_4\""
par RSUExampleScenario.node[3].nic.mac1609_4 notAffectedByHostState false
par RSUExampleScenario.node[3].nic.mac1609_4 headerLength 0bit
attr unit bit
par RSUExampleScenario.node[3].nic.mac1609_4 address "\"auto\""
par RSUExampleScenario.node[3].nic.mac1609_4 useServiceChannel false
par RSUExampleScenario.node[3].nic.mac1609_4 serviceChannel 1
par RSUExampleScenario.node[3].nic.mac1609_4 bitrate 6000000bps
attr unit bps
par RSUExampleScenario.node[3].nic.mac1609_4 syncOffset 0.0003s
attr unit s
par RSUExampleScenario.node[3].nic.mac1609_4 txPower 20mW
attr unit mW
par RSUExampleScenario.node[3].nic.mac1609_4 queueSize 0
par RSUExampleScenario.node[3].nic.mac1609_4 dot11RTSThreshold 12000bit
attr unit bit
par RSUExampleScenario.node[3].nic.mac1609_4 dot11ShortRetryLimit 7
par RSUExampleScenario.node[3].nic.mac1609_4 dot11LongRetryLimit 4
par RSUExampleScenario.node[3].nic.mac1609_4 ackLength 112bit
attr unit bit
par RSUExampleScenario.node[3].nic.mac1609_4 useAcks false
par RSUExampleScenario.node[3].nic.mac1609_4 frameErrorRate 0
par RSUExampleScenario.node[3].nic.mac1609_4 ackErrorRate 0
scalar RSUExampleScenario.node[3].nic.mac1609_4 ReceivedUnicastPackets 0
scalar RSUExampleScenario.node[3].nic.mac1609_4 ReceivedBroadcasts 263
scalar RSUExampleScenario.node[3].nic.mac1609_4 SentPackets 41
scalar RSUExampleScenario.node[3].nic.mac1609_4 SentAcknowledgements 0
scalar RSUExampleScenario.node[3].nic.mac1609_4 RetriesExceeded 0
scalar RSUExampleScenario.node[3].nic.mac1609_4 SNIRLostPackets 0
scalar RSUExampleScenario.node[3].nic.mac1609_4 RXTXLostPackets 0
scalar RSUExampleScenario.node[3].nic.mac1609_4 TotalLostPackets 0
scalar RSUExampleScenario.node[3].nic.mac1609_4 DroppedPacketsInMac 0
scalar RSUExampleScenario.node[3].nic.mac1609_4 TooLittleTime 0
scalar RSUExampleScenario.node[3].nic.mac1609_4 TimesIntoBackoff 41
scalar RSUExampleScenario.node[3].nic.mac1609_4 SlotsBackoff 70
scalar RSUExampleScenario.node[3].nic.mac1609_4 NumInternalContention 0
scalar RSUExampleScenario.node[3].nic.mac1609_4 totalBusyTime 0.031657
scalar RSUExampleScenario.node[3].nic.mac1609_4 retriesExceeded:count 0
attr recordingmode count
attr source org_car2x_veins_modules_mac_sigRetriesExceeded
scalar RSUExampleScenario.node[3].nic.mac1609_4 sentAcks:count 0
attr recordingmode count
attr source org_car2x_veins_modules_mac_sigSentAck
scalar RSUExampleScenario.node[3].nic.mac1609_4 sentPackets:count 41
attr recordingmode count
attr source org_car2x_veins_modules_mac_sigSentPacket
scalar RSUExampleScenario.node[3].nic.mac1609_4 collisions:count 0
attr recordingmode count
attr source org_car2x_veins_modules_mac_sigCollision
scalar RSUExampleScenario.node[3].nic.mac1609_4 channelBusy:timeavg 0.00077212195121951
attr recordingmode timeavg
attr source org_car2x_veins_modules_mac_sigChannelBusy
par RSUExampleScenario.node[3].nic typename "\"org.car2x.veins.modules.nic.Nic80211p\""
par RSUExampleScenario.node[3].nic connectionManagerName "\"connectionManager\""
par RSUExampleScenario.node[3].veinsmobility typename "\"org.car2x.veins.modules.mobility.traci.TraCIMobility\""
par RSUExampleScenario.node[3].veinsmobility notAffectedByHostState true
par RSUExampleScenario.node[3].veinsmobility x 0
par RSUExampleScenario.node[3].veinsmobility y 0
par RSUExampleScenario.node[3].veinsmobility z 0
par RSUExampleScenario.node[3].veinsmobility xOrientation 1
par RSUExampleScenario.node[3].veinsmobility yOrientation 0
par RSUExampleScenario.node[3].veinsmobility zOrientation 0
par RSUExampleScenario.node[3].veinsmobility hostPositionOffset 0m
attr unit m
par RSUExampleScenario.node[3].veinsmobility setHostSpeed false
par RSUExampleScenario.node[3].veinsmobility accidentCount 0
par RSUExampleScenario.node[3].veinsmobility accidentStart 37.2249s
attr unit s
par RSUExampleScenario.node[3].veinsmobility accidentDuration "uniform(30s, 60s)"
attr unit s
par RSUExampleScenario.node[3].veinsmobility accidentInterval "uniform(30s, 60s)"
attr unit s
scalar RSUExampleScenario.node[3].veinsmobility startTime 16
scalar RSUExampleScenario.node[3].veinsmobility totalTime 41
scalar RSUExampleScenario.node[3].veinsmobility stopTime 57
scalar RSUExampleScenario.node[3].veinsmobility minSpeed 0
scalar RSUExampleScenario.node[3].veinsmobility maxSpeed 13.998771058419
scalar RSUExampleScenario.node[3].veinsmobility totalDistance 295.17614040802
scalar RSUExampleScenario.node[3].veinsmobility totalCO2Emission 82.089153872121
par RSUExampleScenario.node[3] typename "\"org.car2x.veins.nodes.Car\""
par RSUExampleScenario.node[3] applType "\"TraCIDemo11p\""
par RSUExampleScenario.node[3] nicType "\"Nic80211p\""
par RSUExampleScenario.node[3] veinsmobilityType "\"org.car2x.veins.modules.mobility.traci.TraCIMobility\""
par RSUExampleScenario.node[4].appl typename "\"org.car2x.veins.modules.application.traci.TraCIDemo11p\""
par RSUExampleScenario.node[4].appl headerLength 80bit
attr unit bit
par RSUExampleScenario.node[4].appl sendBeacons true
par RSUExampleScenario.node[4].appl beaconLengthBits 256bit
attr unit bit
par RSUExampleScenario.node[4].appl beaconUserPriority 7
par RSUExampleScenario.node[4].appl beaconInterval 1s
attr unit s
par RSUExampleScenario.node[4].appl dataLengthBits 1024bit
attr unit bit
par RSUExampleScenario.node[4].appl dataOnSch false
par RSUExampleScenario.node[4].appl dataUserPriority 7
par RSUExampleScenario.node[4].appl avoidBeaconSynchronization true
par RSUExampleScenario.node[4].appl sendWSA false
par RSUExampleScenario.node[4].appl wsaLengthBits 250bit
attr unit bit
par RSUExampleScenario.node[4].appl wsaInterval 1s
attr unit s
scalar RSUExampleScenario.node[4].appl generatedWSMs 0
scalar RSUExampleScenario.node[4].appl receivedWSMs 0
scalar RSUExampleScenario.node[4].appl generatedBSMs 36
scalar RSUExampleScenario.node[4].appl receivedBSMs 233
scalar RSUExampleScenario.node[4].appl generatedWSAs 0
scalar RSUExampleScenario.node[4].appl receivedWSAs 0
par RSUExampleScenario.node[4].nic.phy80211p typename "\"org.car2x.veins.modules.phy.PhyLayer80211p\""
par RSUExampleScenario.node[4].nic.phy80211p recordStats false
par RSUExampleScenario.node[4].nic.phy80211p usePropagationDelay true
par RSUExampleScenario.node[4].nic.phy80211p noiseFloor -98dBm
attr unit dBm
par RSUExampleScenario.node[4].nic.phy80211p useNoiseFloor true
par RSUExampleScenario.node[4].nic.phy80211p antenna "<Antenna type=\"SampledAntenna1D\" id=\"monopole\">...</Antenna> at /home/erick/omnetpp-6.1/veins/examples/P8//antenna.xml:35"
par RSUExampleScenario.node[4].nic.phy80211p antennaOffsetX 0m
attr unit m
par RSUExampleScenario.node[4].nic.phy80211p antennaOffsetY 0m
attr unit m
par RSUExampleScenario.node[4].nic.phy80211p antennaOffsetZ 1.895m
attr unit m
par RSUExampleScenario.node[4].nic.phy80211p antennaOffsetYaw 0rad
attr unit rad
par RSUExampleScenario.node[4].nic.phy80211p analogueModels "<root>...</root> at /home/erick/omnetpp-6.1/veins/examples/P8//config.xml:34"
par RSUExampleScenario.node[4].nic.phy80211p decider "<root>...</root> at /home/erick/omnetpp-6.1/veins/examples/P8//config.xml:34"
par RSUExampleScenario.node[4].nic.phy80211p minPowerLevel -110dBm
attr unit dBm
par RSUExampleScenario.node[4].nic.phy80211p timeRXToTX 0s
attr unit s
par RSUExampleScenario.node[4].nic.phy80211p timeRXToSleep 0s
attr unit s
par RSUExampleScenario.node[4].nic.phy80211p timeTXToRX 0s
attr unit s
par RSUExampleScenario.node[4].nic.phy80211p timeTXToSleep 0s
attr unit s
par RSUExampleScenario.node[4].nic.phy80211p timeSleepToRX 0s
attr unit s
par RSUExampleScenario.node[4].nic.phy80211p timeSleepToTX 0s
attr unit s
par RSUExampleScenario.node[4].nic.phy80211p initialRadioState 0
par RSUExampleScenario.node[4].nic.phy80211p radioMinAtt 1
par RSUExampleScenario.node[4].nic.phy80211p radioMaxAtt 0
par RSUExampleScenario.node[4].nic.phy80211p nbRadioChannels 1
par RSUExampleScenario.node[4].nic.phy80211p initialRadioChannel 0
par RSUExampleScenario.node[4].nic.phy80211p ccaThreshold -65dBm
attr unit dBm
par RSUExampleScenario.node[4].nic.phy80211p collectCollisionStatistics false
par RSUExampleScenario.node[4].nic.phy80211p allowTxDuringRx false
scalar RSUExampleScenario.node[4].nic.phy80211p busyTime 0.00067311111111111
par RSUExampleScenario.node[4].nic.mac1609_4 typename "\"org.car2x.veins.modules.mac.ieee80211p.Mac1609_4\""
par RSUExampleScenario.node[4].nic.mac1609_4 notAffectedByHostState false
par RSUExampleScenario.node[4].nic.mac1609_4 headerLength 0bit
attr unit bit
par RSUExampleScenario.node[4].nic.mac1609_4 address "\"auto\""
par RSUExampleScenario.node[4].nic.mac1609_4 useServiceChannel false
par RSUExampleScenario.node[4].nic.mac1609_4 serviceChannel 1
par RSUExampleScenario.node[4].nic.mac1609_4 bitrate 6000000bps
attr unit bps
par RSUExampleScenario.node[4].nic.mac1609_4 syncOffset 0.0003s
attr unit s
par RSUExampleScenario.node[4].nic.mac1609_4 txPower 20mW
attr unit mW
par RSUExampleScenario.node[4].nic.mac1609_4 queueSize 0
par RSUExampleScenario.node[4].nic.mac1609_4 dot11RTSThreshold 12000bit
attr unit bit
par RSUExampleScenario.node[4].nic.mac1609_4 dot11ShortRetryLimit 7
par RSUExampleScenario.node[4].nic.mac1609_4 dot11LongRetryLimit 4
par RSUExampleScenario.node[4].nic.mac1609_4 ackLength 112bit
attr unit bit
par RSUExampleScenario.node[4].nic.mac1609_4 useAcks false
par RSUExampleScenario.node[4].nic.mac1609_4 frameErrorRate 0
par RSUExampleScenario.node[4].nic.mac1609_4 ackErrorRate 0
scalar RSUExampleScenario.node[4].nic.mac1609_4 ReceivedUnicastPackets 0
scalar RSUExampleScenario.node[4].nic.mac1609_4 ReceivedBroadcasts 233
scalar RSUExampleScenario.node[4].nic.mac1609_4 SentPackets 36
scalar RSUExampleScenario.node[4].nic.mac1609_4 SentAcknowledgements 0
scalar RSUExampleScenario.node[4].nic.mac1609_4 RetriesExceeded 0
scalar RSUExampleScenario.node[4].nic.mac1609_4 SNIRLostPackets 0
scalar RSUExampleScenario.node[4].nic.mac1609_4 RXTXLostPackets 0
scalar RSUExampleScenario.node[4].nic.mac1609_4 TotalLostPackets 0
scalar RSUExampleScenario.node[4].nic.mac1609_4 DroppedPacketsInMac 0
scalar RSUExampleScenario.node[4].nic.mac1609_4 TooLittleTime 0
scalar RSUExampleScenario.node[4].nic.mac1609_4 TimesIntoBackoff 36
scalar RSUExampleScenario.node[4].nic.mac1609_4 SlotsBackoff 56
scalar RSUExampleScenario.node[4].nic.mac1609_4 NumInternalContention 0
scalar RSUExampleScenario.node[4].nic.mac1609_4 totalBusyTime 0.028012
scalar RSUExampleScenario.node[4].nic.mac1609_4 retriesExceeded:count 0
attr recordingmode count
attr source org_car2x_veins_modules_mac_sigRetriesExceeded
scalar RSUExampleScenario.node[4].nic.mac1609_4 sentAcks:count 0
attr recordingmode count
attr source org_car2x_veins_modules_mac_sigSentAck
scalar RSUExampleScenario.node[4].nic.mac1609_4 sentPackets:count 36
attr recordingmode count
attr source org_car2x_veins_modules_mac_sigSentPacket
scalar RSUExampleScenario.node[4].nic.mac1609_4 collisions:count 0
attr recordingmode count
attr source org_car2x_veins_modules_mac_sigCollision
scalar RSUExampleScenario.node[4].nic.mac1609_4 channelBusy:timeavg 0.00077811111111111
attr recordingmode timeavg
attr source org_car2x_veins_modules_mac_sigChannelBusy
par RSUExampleScenario.node[4].nic typename "\"org.car2x.veins.modules.nic.Nic80211p\""
par RSUExampleScenario.node[4].nic connectionManagerName "\"connectionManager\""
par RSUExampleScenario.node[4].veinsmobility typename "\"org.car2x.veins.modules.mobility.traci.TraCIMobility\""
par RSUExampleScenario.node[4].veinsmobility notAffectedByHostState true
par RSUExampleScenario.node[4].veinsmobility x 0
par RSUExampleScenario.node[4].veinsmobility y 0
par RSUExampleScenario.node[4].veinsmobility z 0
par RSUExampleScenario.node[4].veinsmobility xOrientation 1
par RSUExampleScenario.node[4].veinsmobility yOrientation 0
par RSUExampleScenario.node[4].veinsmobility zOrientation 0
par RSUExampleScenario.node[4].veinsmobility hostPositionOffset 0m
attr unit m
par RSUExampleScenario.node[4].veinsmobility setHostSpeed false
par RSUExampleScenario.node[4].veinsmobility accidentCount 0
par RSUExampleScenario.node[4].veinsmobility accidentStart 40.5561s
attr unit s
par RSUExampleScenario.node[4].veinsmobility accidentDuration "uniform(30s, 60s)"
attr unit s
par RSUExampleScenario.node[4].veinsmobility accidentInterval "uniform(30s, 60s)"
attr unit s
scalar RSUExampleScenario.node[4].veinsmobility startTime 21
scalar RSUExampleScenario.node[4].veinsmobility totalTime 36
scalar RSUExampleScenario.node[4].veinsmobility stopTime 57
scalar RSUExampleScenario.node[4].veinsmobility minSpeed 0.12685329807627
scalar RSUExampleScenario.node[4].veinsmobility maxSpeed 12.249855384111
scalar RSUExampleScenario.node[4].veinsmobility totalDistance 290.0573481584
scalar RSUExampleScenario.node[4].veinsmobility totalCO2Emission 70.86304902137
par RSUExampleScenario.node[4] typename "\"org.car2x.veins.nodes.Car\""
par RSUExampleScenario.node[4] applType "\"TraCIDemo11p\""
par RSUExampleScenario.node[4] nicType "\"Nic80211p\""
par RSUExampleScenario.node[4] veinsmobilityType "\"org.car2x.veins.modules.mobility.traci.TraCIMobility\""
par RSUExampleScenario.node[5].appl typename "\"org.car2x.veins.modules.application.traci.TraCIDemo11p\""
par RSUExampleScenario.node[5].appl headerLength 80bit
attr unit bit
par RSUExampleScenario.node[5].appl sendBeacons true
par RSUExampleScenario.node[5].appl beaconLengthBits 256bit
attr unit bit
par RSUExampleScenario.node[5].appl beaconUserPriority 7
par RSUExampleScenario.node[5].appl beaconInterval 1s
attr unit s
par RSUExampleScenario.node[5].appl dataLengthBits 1024bit
attr unit bit
par RSUExampleScenario.node[5].appl dataOnSch false
par RSUExampleScenario.node[5].appl dataUserPriority 7
par RSUExampleScenario.node[5].appl avoidBeaconSynchronization true
par RSUExampleScenario.node[5].appl sendWSA false
par RSUExampleScenario.node[5].appl wsaLengthBits 250bit
attr unit bit
par RSUExampleScenario.node[5].appl wsaInterval 1s
attr unit s
scalar RSUExampleScenario.node[5].appl generatedWSMs 0
scalar RSUExampleScenario.node[5].appl receivedWSMs 0
scalar RSUExampleScenario.node[5].appl generatedBSMs 31
scalar RSUExampleScenario.node[5].appl receivedBSMs 208
scalar RSUExampleScenario.node[5].appl generatedWSAs 0
scalar RSUExampleScenario.node[5].appl receivedWSAs 0
par RSUExampleScenario.node[5].nic.phy80211p typename "\"org.car2x.veins.modules.phy.PhyLayer80211p\""
par RSUExampleScenario.node[5].nic.phy80211p recordStats false
par RSUExampleScenario.node[5].nic.phy80211p usePropagationDelay true
par RSUExampleScenario.node[5].nic.phy80211p noiseFloor -98dBm
attr unit dBm
par RSUExampleScenario.node[5].nic.phy80211p useNoiseFloor true
par RSUExampleScenario.node[5].nic.phy80211p antenna "<Antenna type=\"SampledAntenna1D\" id=\"monopole\">...</Antenna> at /home/erick/omnetpp-6.1/veins/examples/P8//antenna.xml:35"
par RSUExampleScenario.node[5].nic.phy80211p antennaOffsetX 0m
attr unit m
par RSUExampleScenario.node[5].nic.phy80211p antennaOffsetY 0m
attr unit m
par RSUExampleScenario.node[5].nic.phy80211p antennaOffsetZ 1.895m
attr unit m
par RSUExampleScenario.node[5].nic.phy80211p antennaOffsetYaw 0rad
attr unit rad
par RSUExampleScenario.node[5].nic.phy80211p analogueModels "<root>...</root> at /home/erick/omnetpp-6.1/veins/examples/P8//config.xml:34"
par RSUExampleScenario.node[5].nic.phy80211p decider "<root>...</root> at /home/erick/omnetpp-6.1/veins/examples/P8//config.xml:34"
par RSUExampleScenario.node[5].nic.phy80211p minPowerLevel -110dBm
attr unit dBm
par RSUExampleScenario.node[5].nic.phy80211p timeRXToTX 0s
attr unit s
par RSUExampleScenario.node[5].nic.phy80211p timeRXToSleep 0s
attr unit s
par RSUExampleScenario.node[5].nic.phy80211p timeTXToRX 0s
attr unit s
par RSUExampleScenario.node[5].nic.phy80211p timeTXToSleep 0s
attr unit s
par RSUExampleScenario.node[5].nic.phy80211p timeSleepToRX 0s
attr unit s
par RSUExampleScenario.node[5].nic.phy80211p timeSleepToTX 0s
attr unit s
par RSUExampleScenario.node[5].nic.phy80211p initialRadioState 0
par RSUExampleScenario.node[5].nic.phy80211p radioMinAtt 1
par RSUExampleScenario.node[5].nic.phy80211p radioMaxAtt 0
par RSUExampleScenario.node[5].nic.phy80211p nbRadioChannels 1
par RSUExampleScenario.node[5].nic.phy80211p initialRadioChannel 0
par RSUExampleScenario.node[5].nic.phy80211p ccaThreshold -65dBm
attr unit dBm
par RSUExampleScenario.node[5].nic.phy80211p collectCollisionStatistics false
par RSUExampleScenario.node[5].nic.phy80211p allowTxDuringRx false
scalar RSUExampleScenario.node[5].nic.phy80211p busyTime 0.0006978064516129
par RSUExampleScenario.node[5].nic.mac1609_4 typename "\"org.car2x.veins.modules.mac.ieee80211p.Mac1609_4\""
par RSUExampleScenario.node[5].nic.mac1609_4 notAffectedByHostState false
par RSUExampleScenario.node[5].nic.mac1609_4 headerLength 0bit
attr unit bit
par RSUExampleScenario.node[5].nic.mac1609_4 address "\"auto\""
par RSUExampleScenario.node[5].nic.mac1609_4 useServiceChannel false
par RSUExampleScenario.node[5].nic.mac1609_4 serviceChannel 1
par RSUExampleScenario.node[5].nic.mac1609_4 bitrate 6000000bps
attr unit bps
par RSUExampleScenario.node[5].nic.mac1609_4 syncOffset 0.0003s
attr unit s
par RSUExampleScenario.node[5].nic.mac1609_4 txPower 20mW
attr unit mW
par RSUExampleScenario.node[5].nic.mac1609_4 queueSize 0
par RSUExampleScenario.node[5].nic.mac1609_4 dot11RTSThreshold 12000bit
attr unit bit
par RSUExampleScenario.node[5].nic.mac1609_4 dot11ShortRetryLimit 7
par RSUExampleScenario.node[5].nic.mac1609_4 dot11LongRetryLimit 4
par RSUExampleScenario.node[5].nic.mac1609_4 ackLength 112bit
attr unit bit
par RSUExampleScenario.node[5].nic.mac1609_4 useAcks false
par RSUExampleScenario.node[5].nic.mac1609_4 frameErrorRate 0
par RSUExampleScenario.node[5].nic.mac1609_4 ackErrorRate 0
scalar RSUExampleScenario.node[5].nic.mac1609_4 ReceivedUnicastPackets 0
scalar RSUExampleScenario.node[5].nic.mac1609_4 ReceivedBroadcasts 208
scalar RSUExampleScenario.node[5].nic.mac1609_4 SentPackets 31
scalar RSUExampleScenario.node[5].nic.mac1609_4 SentAcknowledgements 0
scalar RSUExampleScenario.node[5].nic.mac1609_4 RetriesExceeded 0
scalar RSUExampleScenario.node[5].nic.mac1609_4 SNIRLostPackets 0
scalar RSUExampleScenario.node[5].nic.mac1609_4 RXTXLostPackets 0
scalar RSUExampleScenario.node[5].nic.mac1609_4 TotalLostPackets 0
scalar RSUExampleScenario.node[5].nic.mac1609_4 DroppedPacketsInMac 0
scalar RSUExampleScenario.node[5].nic.mac1609_4 TooLittleTime 0
scalar RSUExampleScenario.node[5].nic.mac1609_4 TimesIntoBackoff 31
scalar RSUExampleScenario.node[5].nic.mac1609_4 SlotsBackoff 45
scalar RSUExampleScenario.node[5].nic.mac1609_4 NumInternalContention 0
scalar RSUExampleScenario.node[5].nic.mac1609_4 totalBusyTime 0.024887
scalar RSUExampleScenario.node[5].nic.mac1609_4 retriesExceeded:count 0
attr recordingmode count
attr source org_car2x_veins_modules_mac_sigRetriesExceeded
scalar RSUExampleScenario.node[5].nic.mac1609_4 sentAcks:count 0
attr recordingmode count
attr source org_car2x_veins_modules_mac_sigSentAck
scalar RSUExampleScenario.node[5].nic.mac1609_4 sentPackets:count 31
attr recordingmode count
attr source org_car2x_veins_modules_mac_sigSentPacket
scalar RSUExampleScenario.node[5].nic.mac1609_4 collisions:count 0
attr recordingmode count
attr source org_car2x_veins_modules_mac_sigCollision
scalar RSUExampleScenario.node[5].nic.mac1609_4 channelBusy:timeavg 0.0008028064516129
attr recordingmode timeavg
attr source org_car2x_veins_modules_mac_sigChannelBusy
par RSUExampleScenario.node[5].nic typename "\"org.car2x.veins.modules.nic.Nic80211p\""
par RSUExampleScenario.node[5].nic connectionManagerName "\"connectionManager\""
par RSUExampleScenario.node[5].veinsmobility typename "\"org.car2x.veins.modules.mobility.traci.TraCIMobility\""
par RSUExampleScenario.node[5].veinsmobility notAffectedByHostState true
par RSUExampleScenario.node[5].veinsmobility x 0
par RSUExampleScenario.node[5].veinsmobility y 0
par RSUExampleScenario.node[5].veinsmobility z 0
par RSUExampleScenario.node[5].veinsmobility xOrientation 1
par RSUExampleScenario.node[5].veinsmobility yOrientation 0
par RSUExampleScenario.node[5].veinsmobility zOrientation 0
par RSUExampleScenario.node[5].veinsmobility hostPositionOffset 0m
attr unit m
par RSUExampleScenario.node[5].veinsmobility setHostSpeed false
par RSUExampleScenario.node[5].veinsmobility accidentCount 0
par RSUExampleScenario.node[5].veinsmobility accidentStart 58.3508s
attr unit s
par RSUExampleScenario.node[5].veinsmobility accidentDuration "uniform(30s, 60s)"
attr unit s
par RSUExampleScenario.node[5].veinsmobility accidentInterval "uniform(30s, 60s)"
attr unit s
scalar RSUExampleScenario.node[5].veinsmobility startTime 26
scalar RSUExampleScenario.node[5].veinsmobility totalTime 31
scalar RSUExampleScenario.node[5].veinsmobility stopTime 57
scalar RSUExampleScenario.node[5].veinsmobility minSpeed 0.93388297522004
scalar RSUExampleScenario.node[5].veinsmobility maxSpeed 12.651646511958
scalar RSUExampleScenario.node[5].veinsmobility totalDistance 284.17683806798
scalar RSUExampleScenario.node[5].veinsmobility totalCO2Emission 64.841263539219
par RSUExampleScenario.node[5] typename "\"org.car2x.veins.nodes.Car\""
par RSUExampleScenario.node[5] applType "\"TraCIDemo11p\""
par RSUExampleScenario.node[5] nicType "\"Nic80211p\""
par RSUExampleScenario.node[5] veinsmobilityType "\"org.car2x.veins.modules.mobility.traci.TraCIMobility\""
par RSUExampleScenario.node[6].appl typename "\"org.car2x.veins.modules.application.traci.TraCIDemo11p\""
par RSUExampleScenario.node[6].appl headerLength 80bit
attr unit bit
par RSUExampleScenario.node[6].appl sendBeacons true
par RSUExampleScenario.node[6].appl beaconLengthBits 256bit
attr unit bit
par RSUExampleScenario.node[6].appl beaconUserPriority 7
par RSUExampleScenario.node[6].appl beaconInterval 1s
attr unit s
par RSUExampleScenario.node[6].appl dataLengthBits 1024bit
attr unit bit
par RSUExampleScenario.node[6].appl dataOnSch false
par RSUExampleScenario.node[6].appl dataUserPriority 7
par RSUExampleScenario.node[6].appl avoidBeaconSynchronization true
par RSUExampleScenario.node[6].appl sendWSA false
par RSUExampleScenario.node[6].appl wsaLengthBits 250bit
attr unit bit
par RSUExampleScenario.node[6].appl wsaInterval 1s
attr unit s
scalar RSUExampleScenario.node[6].appl generatedWSMs 0
scalar RSUExampleScenario.node[6].appl receivedWSMs 0
scalar RSUExampleScenario.node[6].appl generatedBSMs 26
scalar RSUExampleScenario.node[6].appl receivedBSMs 165
scalar RSUExampleScenario.node[6].appl generatedWSAs 0
scalar RSUExampleScenario.node[6].appl receivedWSAs 0
par RSUExampleScenario.node[6].nic.phy80211p typename "\"org.car2x.veins.modules.phy.PhyLayer80211p\""
par RSUExampleScenario.node[6].nic.phy80211p recordStats false
par RSUExampleScenario.node[6].nic.phy80211p usePropagationDelay true
par RSUExampleScenario.node[6].nic.phy80211p noiseFloor -98dBm
attr unit dBm
par RSUExampleScenario.node[6].nic.phy80211p useNoiseFloor true
par RSUExampleScenario.node[6].nic.phy80211p antenna "<Antenna type=\"SampledAntenna1D\" id=\"monopole\">...</Antenna> at /home/erick/omnetpp-6.1/veins/examples/P8//antenna.xml:35"
par RSUExampleScenario.node[6].nic.phy80211p antennaOffsetX 0m
attr unit m
par RSUExampleScenario.node[6].nic.phy80211p antennaOffsetY 0m
attr unit m
par RSUExampleScenario.node[6].nic.phy80211p antennaOffsetZ 1.895m
attr unit m
par RSUExampleScenario.node[6].nic.phy80211p antennaOffsetYaw 0rad
attr unit rad
par RSUExampleScenario.node[6].nic.phy80211p analogueModels "<root>...</root> at /home/erick/omnetpp-6.1/veins/examples/P8//config.xml:34"
par RSUExampleScenario.node[6].nic.phy80211p decider "<root>...</root> at /home/erick/omnetpp-6.1/veins/examples/P8//config.xml:34"
par RSUExampleScenario.node[6].nic.phy80211p minPowerLevel -110dBm
attr unit dBm
par RSUExampleScenario.node[6].nic.phy80211p timeRXToTX 0s
attr unit s
par RSUExampleScenario.node[6].nic.phy80211p timeRXToSleep 0s
attr unit s
par RSUExampleScenario.node[6].nic.phy80211p timeTXToRX 0s
attr unit s
par RSUExampleScenario.node[6].nic.phy80211p timeTXToSleep 0s
attr unit s
par RSUExampleScenario.node[6].nic.phy80211p timeSleepToRX 0s
attr unit s
par RSUExampleScenario.node[6].nic.phy80211p timeSleepToTX 0s
attr unit s
par RSUExampleScenario.node[6].nic.phy80211p initialRadioState 0
par RSUExampleScenario.node[6].nic.phy80211p radioMinAtt 1
par RSUExampleScenario.node[6].nic.phy80211p radioMaxAtt 0
par RSUExampleScenario.node[6].nic.phy80211p nbRadioChannels 1
par RSUExampleScenario.node[6].nic.phy80211p initialRadioChannel 0
par RSUExampleScenario.node[6].nic.phy80211p ccaThreshold -65dBm
attr unit dBm
par RSUExampleScenario.node[6].nic.phy80211p collectCollisionStatistics false
par RSUExampleScenario.node[6].nic.phy80211p allowTxDuringRx false
scalar RSUExampleScenario.node[6].nic.phy80211p busyTime 0.00066
par RSUExampleScenario.node[6].nic.mac1609_4 typename "\"org.car2x.veins.modules.mac.ieee80211p.Mac1609_4\""
par RSUExampleScenario.node[6].nic.mac1609_4 notAffectedByHostState false
par RSUExampleScenario.node[6].nic.mac1609_4 headerLength 0bit
attr unit bit
par RSUExampleScenario.node[6].nic.mac1609_4 address "\"auto\""
par RSUExampleScenario.node[6].nic.mac1609_4 useServiceChannel false
par RSUExampleScenario.node[6].nic.mac1609_4 serviceChannel 1
par RSUExampleScenario.node[6].nic.mac1609_4 bitrate 6000000bps
attr unit bps
par RSUExampleScenario.node[6].nic.mac1609_4 syncOffset 0.0003s
attr unit s
par RSUExampleScenario.node[6].nic.mac1609_4 txPower 20mW
attr unit mW
par RSUExampleScenario.node[6].nic.mac1609_4 queueSize 0
par RSUExampleScenario.node[6].nic.mac1609_4 dot11RTSThreshold 12000bit
attr unit bit
par RSUExampleScenario.node[6].nic.mac1609_4 dot11ShortRetryLimit 7
par RSUExampleScenario.node[6].nic.mac1609_4 dot11LongRetryLimit 4
par RSUExampleScenario.node[6].nic.mac1609_4 ackLength 112bit
attr unit bit
par RSUExampleScenario.node[6].nic.mac1609_4 useAcks false
par RSUExampleScenario.node[6].nic.mac1609_4 frameErrorRate 0
par RSUExampleScenario.node[6].nic.mac1609_4 ackErrorRate 0
scalar RSUExampleScenario.node[6].nic.mac1609_4 ReceivedUnicastPackets 0
scalar RSUExampleScenario.node[6].nic.mac1609_4 ReceivedBroadcasts 165
scalar RSUExampleScenario.node[6].nic.mac1609_4 SentPackets 26
scalar RSUExampleScenario.node[6].nic.mac1609_4 SentAcknowledgements 0
scalar RSUExampleScenario.node[6].nic.mac1609_4 RetriesExceeded 0
scalar RSUExampleScenario.node[6].nic.mac1609_4 SNIRLostPackets 0
scalar RSUExampleScenario.node[6].nic.mac1609_4 RXTXLostPackets 0
scalar RSUExampleScenario.node[6].nic.mac1609_4 TotalLostPackets 0
scalar RSUExampleScenario.node[6].nic.mac1609_4 DroppedPacketsInMac 0
scalar RSUExampleScenario.node[6].nic.mac1609_4 TooLittleTime 0
scalar RSUExampleScenario.node[6].nic.mac1609_4 TimesIntoBackoff 26
scalar RSUExampleScenario.node[6].nic.mac1609_4 SlotsBackoff 42
scalar RSUExampleScenario.node[6].nic.mac1609_4 NumInternalContention 0
scalar RSUExampleScenario.node[6].nic.mac1609_4 totalBusyTime 0.01989
scalar RSUExampleScenario.node[6].nic.mac1609_4 retriesExceeded:count 0
attr recordingmode count
attr source org_car2x_veins_modules_mac_sigRetriesExceeded
scalar RSUExampleScenario.node[6].nic.mac1609_4 sentAcks:count 0
attr recordingmode count
attr source org_car2x_veins_modules_mac_sigSentAck
scalar RSUExampleScenario.node[6].nic.mac1609_4 sentPackets:count 26
attr recordingmode count
attr source org_car2x_veins_modules_mac_sigSentPacket
scalar RSUExampleScenario.node[6].nic.mac1609_4 collisions:count 0
attr recordingmode count
attr source org_car2x_veins_modules_mac_sigCollision
scalar RSUExampleScenario.node[6].nic.mac1609_4 channelBusy:timeavg 0.000765
attr recordingmode timeavg
attr source org_car2x_veins_modules_mac_sigChannelBusy
par RSUExampleScenario.node[6].nic typename "\"org.car2x.veins.modules.nic.Nic80211p\""
par RSUExampleScenario.node[6].nic connectionManagerName "\"connectionManager\""
par RSUExampleScenario.node[6].veinsmobility typename "\"org.car2x.veins.modules.mobility.traci.TraCIMobility\""
par RSUExampleScenario.node[6].veinsmobility notAffectedByHostState true
par RSUExampleScenario.node[6].veinsmobility x 0
par RSUExampleScenario.node[6].veinsmobility y 0
par RSUExampleScenario.node[6].veinsmobility z 0
par RSUExampleScenario.node[6].veinsmobility xOrientation 1
par RSUExampleScenario.node[6].veinsmobility yOrientation 0
par RSUExampleScenario.node[6].veinsmobility zOrientation 0
par RSUExampleScenario.node[6].veinsmobility hostPositionOffset 0m
attr unit m
par RSUExampleScenario.node[6].veinsmobility setHostSpeed false
par RSUExampleScenario.node[6].veinsmobility accidentCount 0
par RSUExampleScenario.node[6].veinsmobility accidentStart 30.1595s
attr unit s
par RSUExampleScenario.node[6].veinsmobility accidentDuration "uniform(30s, 60s)"
attr unit s
par RSUExampleScenario.node[6].veinsmobility accidentInterval "uniform(30s, 60s)"
attr unit s
scalar RSUExampleScenario.node[6].veinsmobility startTime 31
scalar RSUExampleScenario.node[6].veinsmobility totalTime 26
scalar RSUExampleScenario.node[6].veinsmobility stopTime 57
scalar RSUExampleScenario.node[6].veinsmobility minSpeed 3.8642027677994
scalar RSUExampleScenario.node[6].veinsmobility maxSpeed 13.119218553544
scalar RSUExampleScenario.node[6].veinsmobility totalDistance 244.60072915031
scalar RSUExampleScenario.node[6].veinsmobility totalCO2Emission 63.204132072058
par RSUExampleScenario.node[6] typename "\"org.car2x.veins.nodes.Car\""
par RSUExampleScenario.node[6] applType "\"TraCIDemo11p\""
par RSUExampleScenario.node[6] nicType "\"Nic80211p\""
par RSUExampleScenario.node[6] veinsmobilityType "\"org.car2x.veins.modules.mobility.traci.TraCIMobility\""
par RSUExampleScenario.node[7].appl typename "\"org.car2x.veins.modules.application.traci.TraCIDemo11p\""
par RSUExampleScenario.node[7].appl headerLength 80bit
attr unit bit
par RSUExampleScenario.node[7].appl sendBeacons true
par RSUExampleScenario.node[7].appl beaconLengthBits 256bit
attr unit bit
par RSUExampleScenario.node[7].appl beaconUserPriority 7
par RSUExampleScenario.node[7].appl beaconInterval 1s
attr unit s
par RSUExampleScenario.node[7].appl dataLengthBits 1024bit
attr unit bit
par RSUExampleScenario.node[7].appl dataOnSch false
par RSUExampleScenario.node[7].appl dataUserPriority 7
par RSUExampleScenario.node[7].appl avoidBeaconSynchronization true
par RSUExampleScenario.node[7].appl sendWSA false
par RSUExampleScenario.node[7].appl wsaLengthBits 250bit
attr unit bit
par RSUExampleScenario.node[7].appl wsaInterval 1s
attr unit s
scalar RSUExampleScenario.node[7].appl generatedWSMs 0
scalar RSUExampleScenario.node[7].appl receivedWSMs 0
scalar RSUExampleScenario.node[7].appl generatedBSMs 21
scalar RSUExampleScenario.node[7].appl receivedBSMs 124
scalar RSUExampleScenario.node[7].appl generatedWSAs 0
scalar RSUExampleScenario.node[7].appl receivedWSAs 0
par RSUExampleScenario.node[7].nic.phy80211p typename "\"org.car2x.veins.modules.phy.PhyLayer80211p\""
par RSUExampleScenario.node[7].nic.phy80211p recordStats false
par RSUExampleScenario.node[7].nic.phy80211p usePropagationDelay true
par RSUExampleScenario.node[7].nic.phy80211p noiseFloor -98dBm
attr unit dBm
par RSUExampleScenario.node[7].nic.phy80211p useNoiseFloor true
par RSUExampleScenario.node[7].nic.phy80211p antenna "<Antenna type=\"SampledAntenna1D\" id=\"monopole\">...</Antenna> at /home/erick/omnetpp-6.1/veins/examples/P8//antenna.xml:35"
par RSUExampleScenario.node[7].nic.phy80211p antennaOffsetX 0m
attr unit m
par RSUExampleScenario.node[7].nic.phy80211p antennaOffsetY 0m
attr unit m
par RSUExampleScenario.node[7].nic.phy80211p antennaOffsetZ 1.895m
attr unit m
par RSUExampleScenario.node[7].nic.phy80211p antennaOffsetYaw 0rad
attr unit rad
par RSUExampleScenario.node[7].nic.phy80211p analogueModels "<root>...</root> at /home/erick/omnetpp-6.1/veins/examples/P8//config.xml:34"
par RSUExampleScenario.node[7].nic.phy80211p decider "<root>...</root> at /home/erick/omnetpp-6.1/veins/examples/P8//config.xml:34"
par RSUExampleScenario.node[7].nic.phy80211p minPowerLevel -110dBm
attr unit dBm
par RSUExampleScenario.node[7].nic.phy80211p timeRXToTX 0s
attr unit s
par RSUExampleScenario.node[7].nic.phy80211p timeRXToSleep 0s
attr unit s
par RSUExampleScenario.node[7].nic.phy80211p timeTXToRX 0s
attr unit s
par RSUExampleScenario.node[7].nic.phy80211p timeTXToSleep 0s
attr unit s
par RSUExampleScenario.node[7].nic.phy80211p timeSleepToRX 0s
attr unit s
par RSUExampleScenario.node[7].nic.phy80211p timeSleepToTX 0s
attr unit s
par RSUExampleScenario.node[7].nic.phy80211p initialRadioState 0
par RSUExampleScenario.node[7].nic.phy80211p radioMinAtt 1
par RSUExampleScenario.node[7].nic.phy80211p radioMaxAtt 0
par RSUExampleScenario.node[7].nic.phy80211p nbRadioChannels 1
par RSUExampleScenario.node[7].nic.phy80211p initialRadioChannel 0
par RSUExampleScenario.node[7].nic.phy80211p ccaThreshold -65dBm
attr unit dBm
par RSUExampleScenario.node[7].nic.phy80211p collectCollisionStatistics false
par RSUExampleScenario.node[7].nic.phy80211p allowTxDuringRx false
scalar RSUExampleScenario.node[7].nic.phy80211p busyTime 0.00061409523809524
par RSUExampleScenario.node[7].nic.mac1609_4 typename "\"org.car2x.veins.modules.mac.ieee80211p.Mac1609_4\""
par RSUExampleScenario.node[7].nic.mac1609_4 notAffectedByHostState false
par RSUExampleScenario.node[7].nic.mac1609_4 headerLength 0bit
attr unit bit
par RSUExampleScenario.node[7].nic.mac1609_4 address "\"auto\""
par RSUExampleScenario.node[7].nic.mac1609_4 useServiceChannel false
par RSUExampleScenario.node[7].nic.mac1609_4 serviceChannel 1
par RSUExampleScenario.node[7].nic.mac1609_4 bitrate 6000000bps
attr unit bps
par RSUExampleScenario.node[7].nic.mac1609_4 syncOffset 0.0003s
attr unit s
par RSUExampleScenario.node[7].nic.mac1609_4 txPower 20mW
attr unit mW
par RSUExampleScenario.node[7].nic.mac1609_4 queueSize 0
par RSUExampleScenario.node[7].nic.mac1609_4 dot11RTSThreshold 12000bit
attr unit bit
par RSUExampleScenario.node[7].nic.mac1609_4 dot11ShortRetryLimit 7
par RSUExampleScenario.node[7].nic.mac1609_4 dot11LongRetryLimit 4
par RSUExampleScenario.node[7].nic.mac1609_4 ackLength 112bit
attr unit bit
par RSUExampleScenario.node[7].nic.mac1609_4 useAcks false
par RSUExampleScenario.node[7].nic.mac1609_4 frameErrorRate 0
par RSUExampleScenario.node[7].nic.mac1609_4 ackErrorRate 0
scalar RSUExampleScenario.node[7].nic.mac1609_4 ReceivedUnicastPackets 0
scalar RSUExampleScenario.node[7].nic.mac1609_4 ReceivedBroadcasts 124
scalar RSUExampleScenario.node[7].nic.mac1609_4 SentPackets 21
scalar RSUExampleScenario.node[7].nic.mac1609_4 SentAcknowledgements 0
scalar RSUExampleScenario.node[7].nic.mac1609_4 RetriesExceeded 0
scalar RSUExampleScenario.node[7].nic.mac1609_4 SNIRLostPackets 0
scalar RSUExampleScenario.node[7].nic.mac1609_4 RXTXLostPackets 0
scalar RSUExampleScenario.node[7].nic.mac1609_4 TotalLostPackets 0
scalar RSUExampleScenario.node[7].nic.mac1609_4 DroppedPacketsInMac 0
scalar RSUExampleScenario.node[7].nic.mac1609_4 TooLittleTime 0
scalar RSUExampleScenario.node[7].nic.mac1609_4 TimesIntoBackoff 21
scalar RSUExampleScenario.node[7].nic.mac1609_4 SlotsBackoff 44
scalar RSUExampleScenario.node[7].nic.mac1609_4 NumInternalContention 0
scalar RSUExampleScenario.node[7].nic.mac1609_4 totalBusyTime 0.015101
scalar RSUExampleScenario.node[7].nic.mac1609_4 retriesExceeded:count 0
attr recordingmode count
attr source org_car2x_veins_modules_mac_sigRetriesExceeded
scalar RSUExampleScenario.node[7].nic.mac1609_4 sentAcks:count 0
attr recordingmode count
attr source org_car2x_veins_modules_mac_sigSentAck
scalar RSUExampleScenario.node[7].nic.mac1609_4 sentPackets:count 21
attr recordingmode count
attr source org_car2x_veins_modules_mac_sigSentPacket
scalar RSUExampleScenario.node[7].nic.mac1609_4 collisions:count 0
attr recordingmode count
attr source org_car2x_veins_modules_mac_sigCollision
scalar RSUExampleScenario.node[7].nic.mac1609_4 channelBusy:timeavg 0.00071909523809524
attr recordingmode timeavg
attr source org_car2x_veins_modules_mac_sigChannelBusy
par RSUExampleScenario.node[7].nic typename "\"org.car2x.veins.modules.nic.Nic80211p\""
par RSUExampleScenario.node[7].nic connectionManagerName "\"connectionManager\""
par RSUExampleScenario.node[7].veinsmobility typename "\"org.car2x.veins.modules.mobility.traci.TraCIMobility\""
par RSUExampleScenario.node[7].veinsmobility notAffectedByHostState true
par RSUExampleScenario.node[7].veinsmobility x 0
par RSUExampleScenario.node[7].veinsmobility y 0
par RSUExampleScenario.node[7].veinsmobility z 0
par RSUExampleScenario.node[7].veinsmobility xOrientation 1
par RSUExampleScenario.node[7].veinsmobility yOrientation 0
par RSUExampleScenario.node[7].veinsmobility zOrientation 0
par RSUExampleScenario.node[7].veinsmobility hostPositionOffset 0m
attr unit m
par RSUExampleScenario.node[7].veinsmobility setHostSpeed false
par RSUExampleScenario.node[7].veinsmobility accidentCount 0
par RSUExampleScenario.node[7].veinsmobility accidentStart 55.0816s
attr unit s
par RSUExampleScenario.node[7].veinsmobility accidentDuration "uniform(30s, 60s)"
attr unit s
par RSUExampleScenario.node[7].veinsmobility accidentInterval "uniform(30s, 60s)"
attr unit s
scalar RSUExampleScenario.node[7].veinsmobility startTime 36
scalar RSUExampleScenario.node[7].veinsmobility totalTime 21
scalar RSUExampleScenario.node[7].veinsmobility stopTime 57
scalar RSUExampleScenario.node[7].veinsmobility minSpeed 4.1336164424144
scalar RSUExampleScenario.node[7].veinsmobility maxSpeed 10.610822535275
scalar RSUExampleScenario.node[7].veinsmobility totalDistance 135.49897071922
scalar RSUExampleScenario.node[7].veinsmobility totalCO2Emission 42.086710202241
par RSUExampleScenario.node[7] typename "\"org.car2x.veins.nodes.Car\""
par RSUExampleScenario.node[7] applType "\"TraCIDemo11p\""
par RSUExampleScenario.node[7] nicType "\"Nic80211p\""
par RSUExampleScenario.node[7] veinsmobilityType "\"org.car2x.veins.modules.mobility.traci.TraCIMobility\""
par RSUExampleScenario.node[8].appl typename "\"org.car2x.veins.modules.application.traci.TraCIDemo11p\""
par RSUExampleScenario.node[8].appl headerLength 80bit
attr unit bit
par RSUExampleScenario.node[8].appl sendBeacons true
par RSUExampleScenario.node[8].appl beaconLengthBits 256bit
attr unit bit
par RSUExampleScenario.node[8].appl beaconUserPriority 7
par RSUExampleScenario.node[8].appl beaconInterval 1s
attr unit s
par RSUExampleScenario.node[8].appl dataLengthBits 1024bit
attr unit bit
par RSUExampleScenario.node[8].appl dataOnSch false
par RSUExampleScenario.node[8].appl dataUserPriority 7
par RSUExampleScenario.node[8].appl avoidBeaconSynchronization true
par RSUExampleScenario.node[8].appl sendWSA false
par RSUExampleScenario.node[8].appl wsaLengthBits 250bit
attr unit bit
par RSUExampleScenario.node[8].appl wsaInterval 1s
attr unit s
scalar RSUExampleScenario.node[8].appl generatedWSMs 0
scalar RSUExampleScenario.node[8].appl receivedWSMs 0
scalar RSUExampleScenario.node[8].appl generatedBSMs 16
scalar RSUExampleScenario.node[8].appl receivedBSMs 98
scalar RSUExampleScenario.node[8].appl generatedWSAs 0
scalar RSUExampleScenario.node[8].appl receivedWSAs 0
par RSUExampleScenario.node[8].nic.phy80211p typename "\"org.car2x.veins.modules.phy.PhyLayer80211p\""
par RSUExampleScenario.node[8].nic.phy80211p recordStats false
par RSUExampleScenario.node[8].nic.phy80211p usePropagationDelay true
par RSUExampleScenario.node[8].nic.phy80211p noiseFloor -98dBm
attr unit dBm
par RSUExampleScenario.node[8].nic.phy80211p useNoiseFloor true
par RSUExampleScenario.node[8].nic.phy80211p antenna "<Antenna type=\"SampledAntenna1D\" id=\"monopole\">...</Antenna> at /home/erick/omnetpp-6.1/veins/examples/P8//antenna.xml:35"
par RSUExampleScenario.node[8].nic.phy80211p antennaOffsetX 0m
attr unit m
par RSUExampleScenario.node[8].nic.phy80211p antennaOffsetY 0m
attr unit m
par RSUExampleScenario.node[8].nic.phy80211p antennaOffsetZ 1.895m
attr unit m
par RSUExampleScenario.node[8].nic.phy80211p antennaOffsetYaw 0rad
attr unit rad
par RSUExampleScenario.node[8].nic.phy80211p analogueModels "<root>...</root> at /home/erick/omnetpp-6.1/veins/examples/P8//config.xml:34"
par RSUExampleScenario.node[8].nic.phy80211p decider "<root>...</root> at /home/erick/omnetpp-6.1/veins/examples/P8//config.xml:34"
par RSUExampleScenario.node[8].nic.phy80211p minPowerLevel -110dBm
attr unit dBm
par RSUExampleScenario.node[8].nic.phy80211p timeRXToTX 0s
attr unit s
par RSUExampleScenario.node[8].nic.phy80211p timeRXToSleep 0s
attr unit s
par RSUExampleScenario.node[8].nic.phy80211p timeTXToRX 0s
attr unit s
par RSUExampleScenario.node[8].nic.phy80211p timeTXToSleep 0s
attr unit s
par RSUExampleScenario.node[8].nic.phy80211p timeSleepToRX 0s
attr unit s
par RSUExampleScenario.node[8].nic.phy80211p timeSleepToTX 0s
attr unit s
par RSUExampleScenario.node[8].nic.phy80211p initialRadioState 0
par RSUExampleScenario.node[8].nic.phy80211p radioMinAtt 1
par RSUExampleScenario.node[8].nic.phy80211p radioMaxAtt 0
par RSUExampleScenario.node[8].nic.phy80211p nbRadioChannels 1
par RSUExampleScenario.node[8].nic.phy80211p initialRadioChannel 0
par RSUExampleScenario.node[8].nic.phy80211p ccaThreshold -65dBm
attr unit dBm
par RSUExampleScenario.node[8].nic.phy80211p collectCollisionStatistics false
par RSUExampleScenario.node[8].nic.phy80211p allowTxDuringRx false
scalar RSUExampleScenario.node[8].nic.phy80211p busyTime 0.000637
par RSUExampleScenario.node[8].nic.mac1609_4 typename "\"org.car2x.veins.modules.mac.ieee80211p.Mac1609_4\""
par RSUExampleScenario.node[8].nic.mac1609_4 notAffectedByHostState false
par RSUExampleScenario.node[8].nic.mac1609_4 headerLength 0bit
attr unit bit
par RSUExampleScenario.node[8].nic.mac1609_4 address "\"auto\""
par RSUExampleScenario.node[8].nic.mac1609_4 useServiceChannel false
par RSUExampleScenario.node[8].nic.mac1609_4 serviceChannel 1
par RSUExampleScenario.node[8].nic.mac1609_4 bitrate 6000000bps
attr unit bps
par RSUExampleScenario.node[8].nic.mac1609_4 syncOffset 0.0003s
attr unit s
par RSUExampleScenario.node[8].nic.mac1609_4 txPower 20mW
attr unit mW
par RSUExampleScenario.node[8].nic.mac1609_4 queueSize 0
par RSUExampleScenario.node[8].nic.mac1609_4 dot11RTSThreshold 12000bit
attr unit bit
par RSUExampleScenario.node[8].nic.mac1609_4 dot11ShortRetryLimit 7
par RSUExampleScenario.node[8].nic.mac1609_4 dot11LongRetryLimit 4
par RSUExampleScenario.node[8].nic.mac1609_4 ackLength 112bit
attr unit bit
par RSUExampleScenario.node[8].nic.mac1609_4 useAcks false
par RSUExampleScenario.node[8].nic.mac1609_4 frameErrorRate 0
par RSUExampleScenario.node[8].nic.mac1609_4 ackErrorRate 0
scalar RSUExampleScenario.node[8].nic.mac1609_4 ReceivedUnicastPackets 0
scalar RSUExampleScenario.node[8].nic.mac1609_4 ReceivedBroadcasts 98
scalar RSUExampleScenario.node[8].nic.mac1609_4 SentPackets 16
scalar RSUExampleScenario.node[8].nic.mac1609_4 SentAcknowledgements 0
scalar RSUExampleScenario.node[8].nic.mac1609_4 RetriesExceeded 0
scalar RSUExampleScenario.node[8].nic.mac1609_4 SNIRLostPackets 0
scalar RSUExampleScenario.node[8].nic.mac1609_4 RXTXLostPackets 0
scalar RSUExampleScenario.node[8].nic.mac1609_4 TotalLostPackets 0
scalar RSUExampleScenario.node[8].nic.mac1609_4 DroppedPacketsInMac 0
scalar RSUExampleScenario.node[8].nic.mac1609_4 TooLittleTime 0
scalar RSUExampleScenario.node[8].nic.mac1609_4 TimesIntoBackoff 16
scalar RSUExampleScenario.node[8].nic.mac1609_4 SlotsBackoff 29
scalar RSUExampleScenario.node[8].nic.mac1609_4 NumInternalContention 0
scalar RSUExampleScenario.node[8].nic.mac1609_4 totalBusyTime 0.011872
scalar RSUExampleScenario.node[8].nic.mac1609_4 retriesExceeded:count 0
attr recordingmode count
attr source org_car2x_veins_modules_mac_sigRetriesExceeded
scalar RSUExampleScenario.node[8].nic.mac1609_4 sentAcks:count 0
attr recordingmode count
attr source org_car2x_veins_modules_mac_sigSentAck
scalar RSUExampleScenario.node[8].nic.mac1609_4 sentPackets:count 16
attr recordingmode count
attr source org_car2x_veins_modules_mac_sigSentPacket
scalar RSUExampleScenario.node[8].nic.mac1609_4 collisions:count 0
attr recordingmode count
attr source org_car2x_veins_modules_mac_sigCollision
scalar RSUExampleScenario.node[8].nic.mac1609_4 channelBusy:timeavg 0.000742
attr recordingmode timeavg
attr source org_car2x_veins_modules_mac_sigChannelBusy
par RSUExampleScenario.node[8].nic typename "\"org.car2x.veins.modules.nic.Nic80211p\""
par RSUExampleScenario.node[8].nic connectionManagerName "\"connectionManager\""
par RSUExampleScenario.node[8].veinsmobility typename "\"org.car2x.veins.modules.mobility.traci.TraCIMobility\""
par RSUExampleScenario.node[8].veinsmobility notAffectedByHostState true
par RSUExampleScenario.node[8].veinsmobility x 0
par RSUExampleScenario.node[8].veinsmobility y 0
par RSUExampleScenario.node[8].veinsmobility z 0
par RSUExampleScenario.node[8].veinsmobility xOrientation 1
[...]
par RSUExampleScenario.tls[24].nic.mac1609_4 typename "\"org.car2x.veins.modules.mac.ieee80211p.Mac1609_4\""
par RSUExampleScenario.tls[24].nic.mac1609_4 notAffectedByHostState false
par RSUExampleScenario.tls[24].nic.mac1609_4 headerLength 0bit
attr unit bit
par RSUExampleScenario.tls[24].nic.mac1609_4 address "\"auto\""
par RSUExampleScenario.tls[24].nic.mac1609_4 useServiceChannel false
par RSUExampleScenario.tls[24].nic.mac1609_4 serviceChannel 1
par RSUExampleScenario.tls[24].nic.mac1609_4 bitrate 6000000bps
attr unit bps
par RSUExampleScenario.tls[24].nic.mac1609_4 syncOffset 0.0003s
attr unit s
par RSUExampleScenario.tls[24].nic.mac1609_4 txPower 20mW
attr unit mW
par RSUExampleScenario.tls[24].nic.mac1609_4 queueSize 0
par RSUExampleScenario.tls[24].nic.mac1609_4 dot11RTSThreshold 12000bit
attr unit bit
par RSUExampleScenario.tls[24].nic.mac1609_4 dot11ShortRetryLimit 7
par RSUExampleScenario.tls[24].nic.mac1609_4 dot11LongRetryLimit 4
par RSUExampleScenario.tls[24].nic.mac1609_4 ackLength 112bit
attr unit bit
par RSUExampleScenario.tls[24].nic.mac1609_4 useAcks false
par RSUExampleScenario.tls[24].nic.mac1609_4 frameErrorRate 0
par RSUExampleScenario.tls[24].nic.mac1609_4 ackErrorRate 0
scalar RSUExampleScenario.tls[24].nic.mac1609_4 ReceivedUnicastPackets 0
scalar RSUExampleScenario.tls[24].nic.mac1609_4 ReceivedBroadcasts 0
scalar RSUExampleScenario.tls[24].nic.mac1609_4 SentPackets 0
scalar RSUExampleScenario.tls[24].nic.mac1609_4 SentAcknowledgements 0
scalar RSUExampleScenario.tls[24].nic.mac1609_4 RetriesExceeded 0
scalar RSUExampleScenario.tls[24].nic.mac1609_4 SNIRLostPackets 0
scalar RSUExampleScenario.tls[24].nic.mac1609_4 RXTXLostPackets 0
scalar RSUExampleScenario.tls[24].nic.mac1609_4 TotalLostPackets 0
scalar RSUExampleScenario.tls[24].nic.mac1609_4 DroppedPacketsInMac 0
scalar RSUExampleScenario.tls[24].nic.mac1609_4 TooLittleTime 0
scalar RSUExampleScenario.tls[24].nic.mac1609_4 TimesIntoBackoff 0
scalar RSUExampleScenario.tls[24].nic.mac1609_4 SlotsBackoff 0
scalar RSUExampleScenario.tls[24].nic.mac1609_4 NumInternalContention 0
scalar RSUExampleScenario.tls[24].nic.mac1609_4 totalBusyTime 0
scalar RSUExampleScenario.tls[24].nic.mac1609_4 retriesExceeded:count 0
attr recordingmode count
attr source org_car2x_veins_modules_mac_sigRetriesExceeded
scalar RSUExampleScenario.tls[24].nic.mac1609_4 sentAcks:count 0
attr recordingmode count
attr source org_car2x_veins_modules_mac_sigSentAck
scalar RSUExampleScenario.tls[24].nic.mac1609_4 sentPackets:count 0
attr recordingmode count
attr source org_car2x_veins_modules_mac_sigSentPacket
scalar RSUExampleScenario.tls[24].nic.mac1609_4 collisions:count 0
attr recordingmode count
attr source org_car2x_veins_modules_mac_sigCollision
scalar RSUExampleScenario.tls[24].nic.mac1609_4 channelBusy:timeavg 0
attr recordingmode timeavg
attr source org_car2x_veins_modules_mac_sigChannelBusy
par RSUExampleScenario.tls[24].nic typename "\"org.car2x.veins.modules.nic.Nic80211p\""
par RSUExampleScenario.tls[24].nic connectionManagerName "\"connectionManager\""
par RSUExampleScenario.tls[24].mobility typename "\"org.car2x.veins.base.modules.BaseMobility\""
par RSUExampleScenario.tls[24].mobility notAffectedByHostState true
par RSUExampleScenario.tls[24].mobility x 0
par RSUExampleScenario.tls[24].mobility y 0
par RSUExampleScenario.tls[24].mobility z 3
par RSUExampleScenario.tls[24].mobility xOrientation 1
par RSUExampleScenario.tls[24].mobility yOrientation 0
par RSUExampleScenario.tls[24].mobility zOrientation 0
par RSUExampleScenario.tls[24].tlInterface typename "\"org.car2x.veins.modules.world.traci.trafficLight.TraCITrafficLightInterface\""
par RSUExampleScenario.tls[24].logic typename "\"org.car2x.veins.modules.world.traci.trafficLight.logics.TraCITrafficLightSimpleLogic\""
par RSUExampleScenario.tls[24] typename "\"org.car2x.veins.nodes.TrafficLight\""
par RSUExampleScenario.tls[24] logicType "\"org.car2x.veins.modules.world.traci.trafficLight.logics.TraCITrafficLightSimpleLogic\""
par RSUExampleScenario.tls[24] applType "\"org.car2x.veins.modules.application.traci.TraCIDemoTrafficLightApp\""
par RSUExampleScenario.tls[24] nicType "\"Nic80211p\""
par RSUExampleScenario.tls[24] externalId "\"964667483\""
par RSUExampleScenario.tls[25].appl typename "\"org.car2x.veins.modules.application.traci.TraCIDemoTrafficLightApp\""
par RSUExampleScenario.tls[25].appl headerLength 88bit
attr unit bit
par RSUExampleScenario.tls[25].appl sendBeacons true
par RSUExampleScenario.tls[25].appl beaconLengthBits 256bit
attr unit bit
par RSUExampleScenario.tls[25].appl beaconUserPriority 7
par RSUExampleScenario.tls[25].appl beaconInterval 1s
attr unit s
par RSUExampleScenario.tls[25].appl dataLengthBits 1024bit
attr unit bit
par RSUExampleScenario.tls[25].appl dataOnSch false
par RSUExampleScenario.tls[25].appl dataUserPriority 7
par RSUExampleScenario.tls[25].appl avoidBeaconSynchronization true
par RSUExampleScenario.tls[25].appl sendWSA false
par RSUExampleScenario.tls[25].appl wsaLengthBits 250bit
attr unit bit
par RSUExampleScenario.tls[25].appl wsaInterval 1s
attr unit s
par RSUExampleScenario.tls[25].appl aggregationInterval 1s
attr unit s
scalar RSUExampleScenario.tls[25].appl generatedWSMs 0
scalar RSUExampleScenario.tls[25].appl receivedWSMs 0
scalar RSUExampleScenario.tls[25].appl generatedBSMs 0
scalar RSUExampleScenario.tls[25].appl receivedBSMs 0
scalar RSUExampleScenario.tls[25].appl generatedWSAs 0
scalar RSUExampleScenario.tls[25].appl receivedWSAs 0
par RSUExampleScenario.tls[25].nic.phy80211p typename "\"org.car2x.veins.modules.phy.PhyLayer80211p\""
par RSUExampleScenario.tls[25].nic.phy80211p recordStats false
par RSUExampleScenario.tls[25].nic.phy80211p usePropagationDelay true
par RSUExampleScenario.tls[25].nic.phy80211p noiseFloor -98dBm
attr unit dBm
par RSUExampleScenario.tls[25].nic.phy80211p useNoiseFloor true
par RSUExampleScenario.tls[25].nic.phy80211p antenna "<Antenna type=\"SampledAntenna1D\" id=\"monopole\">...</Antenna> at /home/erick/omnetpp-6.1/veins/examples/P8//antenna.xml:35"
par RSUExampleScenario.tls[25].nic.phy80211p antennaOffsetX 0m
attr unit m
par RSUExampleScenario.tls[25].nic.phy80211p antennaOffsetY 0m
attr unit m
par RSUExampleScenario.tls[25].nic.phy80211p antennaOffsetZ 1.895m
attr unit m
par RSUExampleScenario.tls[25].nic.phy80211p antennaOffsetYaw 0rad
attr unit rad
par RSUExampleScenario.tls[25].nic.phy80211p analogueModels "<root>...</root> at /home/erick/omnetpp-6.1/veins/examples/P8//config.xml:34"
par RSUExampleScenario.tls[25].nic.phy80211p decider "<root>...</root> at /home/erick/omnetpp-6.1/veins/examples/P8//config.xml:34"
par RSUExampleScenario.tls[25].nic.phy80211p minPowerLevel -110dBm
attr unit dBm
par RSUExampleScenario.tls[25].nic.phy80211p timeRXToTX 0s
attr unit s
par RSUExampleScenario.tls[25].nic.phy80211p timeRXToSleep 0s
attr unit s
par RSUExampleScenario.tls[25].nic.phy80211p timeTXToRX 0s
attr unit s
par RSUExampleScenario.tls[25].nic.phy80211p timeTXToSleep 0s
attr unit s
par RSUExampleScenario.tls[25].nic.phy80211p timeSleepToRX 0s
attr unit s
par RSUExampleScenario.tls[25].nic.phy80211p timeSleepToTX 0s
attr unit s
par RSUExampleScenario.tls[25].nic.phy80211p initialRadioState 0
par RSUExampleScenario.tls[25].nic.phy80211p radioMinAtt 1
par RSUExampleScenario.tls[25].nic.phy80211p radioMaxAtt 0
par RSUExampleScenario.tls[25].nic.phy80211p nbRadioChannels 1
par RSUExampleScenario.tls[25].nic.phy80211p initialRadioChannel 0
par RSUExampleScenario.tls[25].nic.phy80211p ccaThreshold -65dBm
attr unit dBm
par RSUExampleScenario.tls[25].nic.phy80211p collectCollisionStatistics false
par RSUExampleScenario.tls[25].nic.phy80211p allowTxDuringRx false
scalar RSUExampleScenario.tls[25].nic.phy80211p busyTime 0
par RSUExampleScenario.tls[25].nic.mac1609_4 typename "\"org.car2x.veins.modules.mac.ieee80211p.Mac1609_4\""
par RSUExampleScenario.tls[25].nic.mac1609_4 notAffectedByHostState false
par RSUExampleScenario.tls[25].nic.mac1609_4 headerLength 0bit
attr unit bit
par RSUExampleScenario.tls[25].nic.mac1609_4 address "\"auto\""
par RSUExampleScenario.tls[25].nic.mac1609_4 useServiceChannel false
par RSUExampleScenario.tls[25].nic.mac1609_4 serviceChannel 1
par RSUExampleScenario.tls[25].nic.mac1609_4 bitrate 6000000bps
attr unit bps
par RSUExampleScenario.tls[25].nic.mac1609_4 syncOffset 0.0003s
attr unit s
par RSUExampleScenario.tls[25].nic.mac1609_4 txPower 20mW
attr unit mW
par RSUExampleScenario.tls[25].nic.mac1609_4 queueSize 0
par RSUExampleScenario.tls[25].nic.mac1609_4 dot11RTSThreshold 12000bit
attr unit bit
par RSUExampleScenario.tls[25].nic.mac1609_4 dot11ShortRetryLimit 7
par RSUExampleScenario.tls[25].nic.mac1609_4 dot11LongRetryLimit 4
par RSUExampleScenario.tls[25].nic.mac1609_4 ackLength 112bit
attr unit bit
par RSUExampleScenario.tls[25].nic.mac1609_4 useAcks false
par RSUExampleScenario.tls[25].nic.mac1609_4 frameErrorRate 0
par RSUExampleScenario.tls[25].nic.mac1609_4 ackErrorRate 0
scalar RSUExampleScenario.tls[25].nic.mac1609_4 ReceivedUnicastPackets 0
scalar RSUExampleScenario.tls[25].nic.mac1609_4 ReceivedBroadcasts 0
scalar RSUExampleScenario.tls[25].nic.mac1609_4 SentPackets 0
scalar RSUExampleScenario.tls[25].nic.mac1609_4 SentAcknowledgements 0
scalar RSUExampleScenario.tls[25].nic.mac1609_4 RetriesExceeded 0
scalar RSUExampleScenario.tls[25].nic.mac1609_4 SNIRLostPackets 0
scalar RSUExampleScenario.tls[25].nic.mac1609_4 RXTXLostPackets 0
scalar RSUExampleScenario.tls[25].nic.mac1609_4 TotalLostPackets 0
scalar RSUExampleScenario.tls[25].nic.mac1609_4 DroppedPacketsInMac 0
scalar RSUExampleScenario.tls[25].nic.mac1609_4 TooLittleTime 0
scalar RSUExampleScenario.tls[25].nic.mac1609_4 TimesIntoBackoff 0
scalar RSUExampleScenario.tls[25].nic.mac1609_4 SlotsBackoff 0
scalar RSUExampleScenario.tls[25].nic.mac1609_4 NumInternalContention 0
scalar RSUExampleScenario.tls[25].nic.mac1609_4 totalBusyTime 0
scalar RSUExampleScenario.tls[25].nic.mac1609_4 retriesExceeded:count 0
attr recordingmode count
attr source org_car2x_veins_modules_mac_sigRetriesExceeded
scalar RSUExampleScenario.tls[25].nic.mac1609_4 sentAcks:count 0
attr recordingmode count
attr source org_car2x_veins_modules_mac_sigSentAck
scalar RSUExampleScenario.tls[25].nic.mac1609_4 sentPackets:count 0
attr recordingmode count
attr source org_car2x_veins_modules_mac_sigSentPacket
scalar RSUExampleScenario.tls[25].nic.mac1609_4 collisions:count 0
attr recordingmode count
attr source org_car2x_veins_modules_mac_sigCollision
scalar RSUExampleScenario.tls[25].nic.mac1609_4 channelBusy:timeavg 0
attr recordingmode timeavg
attr source org_car2x_veins_modules_mac_sigChannelBusy
par RSUExampleScenario.tls[25].nic typename "\"org.car2x.veins.modules.nic.Nic80211p\""
par RSUExampleScenario.tls[25].nic connectionManagerName "\"connectionManager\""
par RSUExampleScenario.tls[25].mobility typename "\"org.car2x.veins.base.modules.BaseMobility\""
par RSUExampleScenario.tls[25].mobility notAffectedByHostState true
par RSUExampleScenario.tls[25].mobility x 0
par RSUExampleScenario.tls[25].mobility y 0
par RSUExampleScenario.tls[25].mobility z 3
par RSUExampleScenario.tls[25].mobility xOrientation 1
par RSUExampleScenario.tls[25].mobility yOrientation 0
par RSUExampleScenario.tls[25].mobility zOrientation 0
par RSUExampleScenario.tls[25].tlInterface typename "\"org.car2x.veins.modules.world.traci.trafficLight.TraCITrafficLightInterface\""
par RSUExampleScenario.tls[25].logic typename "\"org.car2x.veins.modules.world.traci.trafficLight.logics.TraCITrafficLightSimpleLogic\""
par RSUExampleScenario.tls[25] typename "\"org.car2x.veins.nodes.TrafficLight\""
par RSUExampleScenario.tls[25] logicType "\"org.car2x.veins.modules.world.traci.trafficLight.logics.TraCITrafficLightSimpleLogic\""
par RSUExampleScenario.tls[25] applType "\"org.car2x.veins.modules.application.traci.TraCIDemoTrafficLightApp\""
par RSUExampleScenario.tls[25] nicType "\"Nic80211p\""
par RSUExampleScenario.tls[25] externalId "\"964667498\""
par RSUExampleScenario.tls[26].appl typename "\"org.car2x.veins.modules.application.traci.TraCIDemoTrafficLightApp\""
par RSUExampleScenario.tls[26].appl headerLength 88bit
attr unit bit
par RSUExampleScenario.tls[26].appl sendBeacons true
par RSUExampleScenario.tls[26].appl beaconLengthBits 256bit
attr unit bit
par RSUExampleScenario.tls[26].appl beaconUserPriority 7
par RSUExampleScenario.tls[26].appl beaconInterval 1s
attr unit s
par RSUExampleScenario.tls[26].appl dataLengthBits 1024bit
attr unit bit
par RSUExampleScenario.tls[26].appl dataOnSch false
par RSUExampleScenario.tls[26].appl dataUserPriority 7
par RSUExampleScenario.tls[26].appl avoidBeaconSynchronization true
par RSUExampleScenario.tls[26].appl sendWSA false
par RSUExampleScenario.tls[26].appl wsaLengthBits 250bit
attr unit bit
par RSUExampleScenario.tls[26].appl wsaInterval 1s
attr unit s
par RSUExampleScenario.tls[26].appl aggregationInterval 1s
attr unit s
scalar RSUExampleScenario.tls[26].appl generatedWSMs 0
scalar RSUExampleScenario.tls[26].appl receivedWSMs 0
scalar RSUExampleScenario.tls[26].appl generatedBSMs 0
scalar RSUExampleScenario.tls[26].appl receivedBSMs 0
scalar RSUExampleScenario.tls[26].appl generatedWSAs 0
scalar RSUExampleScenario.tls[26].appl receivedWSAs 0
par RSUExampleScenario.tls[26].nic.phy80211p typename "\"org.car2x.veins.modules.phy.PhyLayer80211p\""
par RSUExampleScenario.tls[26].nic.phy80211p recordStats false
par RSUExampleScenario.tls[26].nic.phy80211p usePropagationDelay true
par RSUExampleScenario.tls[26].nic.phy80211p noiseFloor -98dBm
attr unit dBm
par RSUExampleScenario.tls[26].nic.phy80211p useNoiseFloor true
par RSUExampleScenario.tls[26].nic.phy80211p antenna "<Antenna type=\"SampledAntenna1D\" id=\"monopole\">...</Antenna> at /home/erick/omnetpp-6.1/veins/examples/P8//antenna.xml:35"
par RSUExampleScenario.tls[26].nic.phy80211p antennaOffsetX 0m
attr unit m
par RSUExampleScenario.tls[26].nic.phy80211p antennaOffsetY 0m
attr unit m
par RSUExampleScenario.tls[26].nic.phy80211p antennaOffsetZ 1.895m
attr unit m
par RSUExampleScenario.tls[26].nic.phy80211p antennaOffsetYaw 0rad
attr unit rad
par RSUExampleScenario.tls[26].nic.phy80211p analogueModels "<root>...</root> at /home/erick/omnetpp-6.1/veins/examples/P8//config.xml:34"
par RSUExampleScenario.tls[26].nic.phy80211p decider "<root>...</root> at /home/erick/omnetpp-6.1/veins/examples/P8//config.xml:34"
par RSUExampleScenario.tls[26].nic.phy80211p minPowerLevel -110dBm
attr unit dBm
par RSUExampleScenario.tls[26].nic.phy80211p timeRXToTX 0s
attr unit s
par RSUExampleScenario.tls[26].nic.phy80211p timeRXToSleep 0s
attr unit s
par RSUExampleScenario.tls[26].nic.phy80211p timeTXToRX 0s
attr unit s
par RSUExampleScenario.tls[26].nic.phy80211p timeTXToSleep 0s
attr unit s
par RSUExampleScenario.tls[26].nic.phy80211p timeSleepToRX 0s
attr unit s
par RSUExampleScenario.tls[26].nic.phy80211p timeSleepToTX 0s
attr unit s
par RSUExampleScenario.tls[26].nic.phy80211p initialRadioState 0
par RSUExampleScenario.tls[26].nic.phy80211p radioMinAtt 1
par RSUExampleScenario.tls[26].nic.phy80211p radioMaxAtt 0
par RSUExampleScenario.tls[26].nic.phy80211p nbRadioChannels 1
par RSUExampleScenario.tls[26].nic.phy80211p initialRadioChannel 0
par RSUExampleScenario.tls[26].nic.phy80211p ccaThreshold -65dBm
attr unit dBm
par RSUExampleScenario.tls[26].nic.phy80211p collectCollisionStatistics false
par RSUExampleScenario.tls[26].nic.phy80211p allowTxDuringRx false
scalar RSUExampleScenario.tls[26].nic.phy80211p busyTime 0
par RSUExampleScenario.tls[26].nic.mac1609_4 typename "\"org.car2x.veins.modules.mac.ieee80211p.Mac1609_4\""
par RSUExampleScenario.tls[26].nic.mac1609_4 notAffectedByHostState false
par RSUExampleScenario.tls[26].nic.mac1609_4 headerLength 0bit
attr unit bit
par RSUExampleScenario.tls[26].nic.mac1609_4 address "\"auto\""
par RSUExampleScenario.tls[26].nic.mac1609_4 useServiceChannel false
par RSUExampleScenario.tls[26].nic.mac1609_4 serviceChannel 1
par RSUExampleScenario.tls[26].nic.mac1609_4 bitrate 6000000bps
attr unit bps
par RSUExampleScenario.tls[26].nic.mac1609_4 syncOffset 0.0003s
attr unit s
par RSUExampleScenario.tls[26].nic.mac1609_4 txPower 20mW
attr unit mW
par RSUExampleScenario.tls[26].nic.mac1609_4 queueSize 0
par RSUExampleScenario.tls[26].nic.mac1609_4 dot11RTSThreshold 12000bit
attr unit bit
par RSUExampleScenario.tls[26].nic.mac1609_4 dot11ShortRetryLimit 7
par RSUExampleScenario.tls[26].nic.mac1609_4 dot11LongRetryLimit 4
par RSUExampleScenario.tls[26].nic.mac1609_4 ackLength 112bit
attr unit bit
par RSUExampleScenario.tls[26].nic.mac1609_4 useAcks false
par RSUExampleScenario.tls[26].nic.mac1609_4 frameErrorRate 0
par RSUExampleScenario.tls[26].nic.mac1609_4 ackErrorRate 0
scalar RSUExampleScenario.tls[26].nic.mac1609_4 ReceivedUnicastPackets 0
scalar RSUExampleScenario.tls[26].nic.mac1609_4 ReceivedBroadcasts 0
scalar RSUExampleScenario.tls[26].nic.mac1609_4 SentPackets 0
scalar RSUExampleScenario.tls[26].nic.mac1609_4 SentAcknowledgements 0
scalar RSUExampleScenario.tls[26].nic.mac1609_4 RetriesExceeded 0
scalar RSUExampleScenario.tls[26].nic.mac1609_4 SNIRLostPackets 0
scalar RSUExampleScenario.tls[26].nic.mac1609_4 RXTXLostPackets 0
scalar RSUExampleScenario.tls[26].nic.mac1609_4 TotalLostPackets 0
scalar RSUExampleScenario.tls[26].nic.mac1609_4 DroppedPacketsInMac 0
scalar RSUExampleScenario.tls[26].nic.mac1609_4 TooLittleTime 0
scalar RSUExampleScenario.tls[26].nic.mac1609_4 TimesIntoBackoff 0
scalar RSUExampleScenario.tls[26].nic.mac1609_4 SlotsBackoff 0
scalar RSUExampleScenario.tls[26].nic.mac1609_4 NumInternalContention 0
scalar RSUExampleScenario.tls[26].nic.mac1609_4 totalBusyTime 0
scalar RSUExampleScenario.tls[26].nic.mac1609_4 retriesExceeded:count 0
attr recordingmode count
attr source org_car2x_veins_modules_mac_sigRetriesExceeded
scalar RSUExampleScenario.tls[26].nic.mac1609_4 sentAcks:count 0
attr recordingmode count
attr source org_car2x_veins_modules_mac_sigSentAck
scalar RSUExampleScenario.tls[26].nic.mac1609_4 sentPackets:count 0
attr recordingmode count
attr source org_car2x_veins_modules_mac_sigSentPacket
scalar RSUExampleScenario.tls[26].nic.mac1609_4 collisions:count 0
attr recordingmode count
attr source org_car2x_veins_modules_mac_sigCollision
scalar RSUExampleScenario.tls[26].nic.mac1609_4 channelBusy:timeavg 0
attr recordingmode timeavg
attr source org_car2x_veins_modules_mac_sigChannelBusy
par RSUExampleScenario.tls[26].nic typename "\"org.car2x.veins.modules.nic.Nic80211p\""
par RSUExampleScenario.tls[26].nic connectionManagerName "\"connectionManager\""
par RSUExampleScenario.tls[26].mobility typename "\"org.car2x.veins.base.modules.BaseMobility\""
par RSUExampleScenario.tls[26].mobility notAffectedByHostState true
par RSUExampleScenario.tls[26].mobility x 0
par RSUExampleScenario.tls[26].mobility y 0
par RSUExampleScenario.tls[26].mobility z 3
par RSUExampleScenario.tls[26].mobility xOrientation 1
par RSUExampleScenario.tls[26].mobility yOrientation 0
par RSUExampleScenario.tls[26].mobility zOrientation 0
par RSUExampleScenario.tls[26].tlInterface typename "\"org.car2x.veins.modules.world.traci.trafficLight.TraCITrafficLightInterface\""
par RSUExampleScenario.tls[26].logic typename "\"org.car2x.veins.modules.world.traci.trafficLight.logics.TraCITrafficLightSimpleLogic\""
par RSUExampleScenario.tls[26] typename "\"org.car2x.veins.nodes.TrafficLight\""
par RSUExampleScenario.tls[26] logicType "\"org.car2x.veins.modules.world.traci.trafficLight.logics.TraCITrafficLightSimpleLogic\""
par RSUExampleScenario.tls[26] applType "\"org.car2x.veins.modules.application.traci.TraCIDemoTrafficLightApp\""
par RSUExampleScenario.tls[26] nicType "\"Nic80211p\""
par RSUExampleScenario.tls[26] externalId "\"964667500\""
par RSUExampleScenario typename "\"RSUExampleScenario\""
par RSUExampleScenario playgroundSizeX 2500m
attr unit m
par RSUExampleScenario playgroundSizeY 2500m
attr unit m
par RSUExampleScenario playgroundSizeZ 50m
attr unit m

